@<TRIPOS>MOLECULE
TWB
   24    25     1     0     0
SMALL
bcc


@<TRIPOS>ATOM
      1 C02         21.4700    14.0670     6.2360 ca         1 TWB       0.180900
      2 C03         20.5460    14.8330     5.5720 ca         1 TWB      -0.222000
      3 C04         20.0110    15.9680     6.1580 ca         1 TWB       0.197100
      4 C06         18.5420    17.7510     6.0430 c          1 TWB       0.739800
      5 C08         18.8580    18.1770     7.3660 cc         1 TWB      -0.319200
      6 C09         19.7640    17.4920     8.0880 cd         1 TWB       0.160600
      7 C10         20.0170    18.0810     9.4630 c3         1 TWB      -0.296400
      8 C15         20.3960    16.3310     7.4540 ca         1 TWB      -0.158800
      9 C           21.3600    15.5510     8.0980 ca         1 TWB       0.241900
     10 C17         21.8890    14.4370     7.5040 ca         1 TWB      -0.256000
     11 O           19.1030    16.6790     5.4330 os         1 TWB      -0.342200
     12 O12         19.3370    17.9820    12.0950 o          1 TWB      -0.847500
     13 O13         19.6540    15.7560    10.8850 o          1 TWB      -0.847500
     14 O14         17.6160    17.1890    10.4220 oh         1 TWB      -0.795400
     15 P11         19.1730    17.1810    10.8260 p5         1 TWB       1.326600
     16 F           21.9630    12.9630     5.6570 f          1 TWB      -0.144900
     17 H1          20.2480    14.5680     4.6530 ha         1 TWB       0.164000
     18 O2          17.7000    18.4590     5.5070 o          1 TWB      -0.607500
     19 H3          18.3950    18.9700     7.7380 ha         1 TWB       0.176000
     20 H4          21.1900    18.2010     9.6820 hc         1 TWB       0.089200
     21 H5          19.5360    19.1770     9.5460 hc         1 TWB       0.089200
     22 F1          21.7820    15.8920     9.3110 f          1 TWB      -0.117900
     23 H11         17.1800    18.0310    10.7490 ho         1 TWB       0.428000
     24 H           22.5730    13.8900     7.9890 ha         1 TWB       0.159000
@<TRIPOS>BOND
     1     1     2 ar  
     2     1    10 ar  
     3     1    16 1   
     4     2     3 ar  
     5     3     8 ar  
     6     3    11 1   
     7     4     5 1   
     8     4    11 1   
     9     4    18 2   
    10     5     6 2   
    11     6     7 1   
    12     6     8 1   
    13     7    15 1   
    14     8     9 ar  
    15     9    10 ar  
    16     9    22 1   
    17    12    15 1   
    18    13    15 1   
    19    14    15 1   
    20     2    17 1   
    21     5    19 1   
    22     7    20 1   
    23     7    21 1   
    24    10    24 1   
    25    14    23 1   
@<TRIPOS>SUBSTRUCTURE
     1 TWB         1 TEMP              0 ****  ****    0 ROOT
