@<TRIPOS>MOLECULE
TWB
   30    31     1     0     0
SMALL
bcc


@<TRIPOS>ATOM
      1 C02         21.5280    14.0200     6.3150 ca         1 TWB      -0.045300
      2 C03         20.6240    14.8130     5.6720 ca         1 TWB      -0.176000
      3 C04         20.1150    15.9520     6.2760 ca         1 TWB       0.148100
      4 C06         18.6390    17.7220     6.1180 c          1 TWB       0.735800
      5 C08         18.9170    18.1360     7.4540 cc         1 TWB      -0.319200
      6 C09         19.8190    17.4630     8.1940 cd         1 TWB       0.149600
      7 C10         19.9840    18.0970     9.5610 c3         1 TWB      -0.296400
      8 C15         20.4900    16.2960     7.5850 ca         1 TWB      -0.118800
      9 C           21.4610    15.4960     8.2130 ca         1 TWB       0.022700
     10 C17         21.9510    14.3860     7.5780 ca         1 TWB      -0.188000
     11 O           19.2420    16.6720     5.5200 os         1 TWB      -0.346200
     12 O12         19.2530    17.9840    12.1660 o          1 TWB      -0.851000
     13 O13         19.4920    15.7590    10.9360 o          1 TWB      -0.851000
     14 O14         17.5230    17.2680    10.4650 oh         1 TWB      -0.793400
     15 P11         19.0740    17.2040    10.8880 p5         1 TWB       1.330600
     16 C1          22.0620    12.7560     5.6680 c3         1 TWB      -0.049800
     17 H1          20.3180    14.5720     4.7510 ha         1 TWB       0.144000
     18 O2          17.7970    18.4110     5.5530 o          1 TWB      -0.618500
     19 H3          18.4300    18.9160     7.8180 ha         1 TWB       0.177000
     20 H4          21.1440    18.2680     9.8110 hc         1 TWB       0.084200
     21 H5          19.4880    19.1890     9.5980 hc         1 TWB       0.084200
     22 C2          22.1250    15.6880     9.5750 c3         1 TWB      -0.097800
     23 H11         17.1150    18.1260    10.7860 ho         1 TWB       0.429000
     24 H           22.6340    13.8190     8.0400 ha         1 TWB       0.126000
     25 H2          23.1720    12.5080     6.0530 hc         1 TWB       0.038700
     26 H6          22.0850    12.8640     4.4730 hc         1 TWB       0.038700
     27 H7          21.3390    11.8470     5.9670 hc         1 TWB       0.038700
     28 H8          23.1480    16.2950     9.4300 hc         1 TWB       0.068033
     29 H9          22.3990    14.6250    10.0640 hc         1 TWB       0.068033
     30 H10         21.4600    16.2420    10.3940 hc         1 TWB       0.068033
@<TRIPOS>BOND
     1     1     2 ar  
     2     1    10 ar  
     3     1    16 1   
     4     2     3 ar  
     5     3     8 ar  
     6     3    11 1   
     7     4     5 1   
     8     4    11 1   
     9     4    18 2   
    10     5     6 2   
    11     6     7 1   
    12     6     8 1   
    13     7    15 1   
    14     8     9 ar  
    15     9    10 ar  
    16     9    22 1   
    17    12    15 1   
    18    13    15 1   
    19    14    15 1   
    20     2    17 1   
    21     5    19 1   
    22     7    20 1   
    23     7    21 1   
    24    10    24 1   
    25    14    23 1   
    26    16    25 1   
    27    16    26 1   
    28    16    27 1   
    29    22    28 1   
    30    22    29 1   
    31    22    30 1   
@<TRIPOS>SUBSTRUCTURE
     1 TWB         1 TEMP              0 ****  ****    0 ROOT
