@<TRIPOS>MOLECULE
TWB
   27    28     1     0     0
SMALL
bcc


@<TRIPOS>ATOM
      1 C02         21.5190    14.0220     6.4110 ca         1 TWB      -0.098000
      2 C03         20.6800    14.8220     5.6830 ca         1 TWB      -0.173000
      3 C04         20.1050    15.9490     6.2450 ca         1 TWB       0.140100
      4 C06         18.6370    17.7290     6.0670 c          1 TWB       0.734800
      5 C08         18.9150    18.1600     7.4020 cc         1 TWB      -0.319200
      6 C09         19.7760    17.4570     8.1600 cd         1 TWB       0.151600
      7 C10         20.0580    18.0320     9.5280 c3         1 TWB      -0.307400
      8 C15         20.3970    16.2650     7.5740 ca         1 TWB      -0.140800
      9 C           21.2480    15.4320     8.3050 ca         1 TWB      -0.062000
     10 C17         21.8050    14.3190     7.7330 ca         1 TWB      -0.120300
     11 O           19.2610    16.6870     5.4660 os         1 TWB      -0.342200
     12 O12         19.3160    17.9530    12.1330 o          1 TWB      -0.856500
     13 O13         19.6050    15.7260    10.9120 o          1 TWB      -0.856500
     14 O14         17.6110    17.2220    10.4150 oh         1 TWB      -0.791400
     15 P11         19.1560    17.1620    10.8600 p5         1 TWB       1.337600
     16 H           21.9270    13.2130     5.9880 ha         1 TWB       0.120000
     17 H1          20.4730    14.5880     4.7330 ha         1 TWB       0.140000
     18 O2          17.7770    18.4040     5.5110 o          1 TWB      -0.622500
     19 H3          18.4620    18.9690     7.7520 ha         1 TWB       0.161000
     20 H4          21.2390    18.0430     9.7430 hc         1 TWB       0.089700
     21 H5          19.6540    19.1600     9.5920 hc         1 TWB       0.089700
     22 H2          21.4470    15.6460     9.2610 ha         1 TWB       0.218000
     23 H11         17.1860    18.0620    10.7620 ho         1 TWB       0.432000
     24 C1          22.7210    13.3700     8.4920 c3         1 TWB      -0.046800
     25 H6          23.8220    13.3870     8.0100 hc         1 TWB       0.040700
     26 H7          22.7940    13.6460     9.6600 hc         1 TWB       0.040700
     27 H8          22.3010    12.2490     8.3890 hc         1 TWB       0.040700
@<TRIPOS>BOND
     1     1     2 ar  
     2     1    10 ar  
     3     2     3 ar  
     4     3     8 ar  
     5     3    11 1   
     6     4     5 1   
     7     4    11 1   
     8     4    18 2   
     9     5     6 2   
    10     6     7 1   
    11     6     8 1   
    12     7    15 1   
    13     8     9 ar  
    14     9    10 ar  
    15    10    24 1   
    16    12    15 1   
    17    13    15 1   
    18    14    15 1   
    19     1    16 1   
    20     2    17 1   
    21     5    19 1   
    22     7    20 1   
    23     7    21 1   
    24     9    22 1   
    25    14    23 1   
    26    24    25 1   
    27    24    26 1   
    28    24    27 1   
@<TRIPOS>SUBSTRUCTURE
     1 TWB         1 TEMP              0 ****  ****    0 ROOT
