# Molecule written by the XED library from Cresset
@<TRIPOS>MOLECULE
A TWB 301
    31     32      1
SMALL
USER_CHARGES
@<TRIPOS>ATOM
      1  C02        21.4637   14.0852    6.2259 C.ar      1 TWB1       -0.0479
      2  C03        20.5320   14.8515    5.5762 C.ar      1 TWB1       -0.0932
      3  C04        20.0030   15.9872    6.1661 C.ar      1 TWB1        0.0959
      4  C06        18.5323   17.7659    6.0456 C.2       1 TWB1        0.2674
      5  C08        18.8504   18.1921    7.3681 C.2       1 TWB1       -0.0591
      6  C09        19.7553   17.5067    8.0914 C.2       1 TWB1        0.0196
      7  C10        19.9938   18.1057    9.4658 C.3       1 TWB1       -0.0010
      8  C15        20.3957   16.3434    7.4619 C.ar      1 TWB1        0.0002
      9  C          21.3700   15.5703    8.1172 C.ar      1 TWB1        0.0868
     10  C17        21.8884   14.4589    7.4861 C.ar      1 TWB1       -0.0924
     11  O          19.0916   16.6926    5.4397 O.3       1 TWB1       -0.1000
     12  O12        19.3453   17.9829   12.0902 O.2       1 TWB1       -0.3354
     13  O13        19.6584   15.7564   10.8789 O.2       1 TWB1       -0.3354
     14  O14        17.6166   17.1888   10.4172 O.2       1 TWB1       -0.5166
     15  P11        19.1719   17.1824   10.8228 P.3       1 TWB1        0.6749
     16  C1         22.0187   12.8200    5.5928 C.3       1 TWB1       -0.0802
     17  H1         20.2192   14.5870    4.6625 H         1 TWB1        0.0926
     18  O2         17.6927   18.4715    5.5030 O.2       1 TWB1       -0.4057
     19  H3         18.3901   18.9826    7.7399 H         1 TWB1        0.0947
     20  H4         21.1655   18.2466    9.6848 H         1 TWB1        0.0540
     21  H5         19.4944   19.1915    9.5533 H         1 TWB1        0.0540
     22  O1         21.7533   15.9175    9.3496 O.3       1 TWB1       -0.1982
     23  H11        17.1801   18.0279   10.7501 H         1 TWB1        0.3295
     24  H          22.5746   13.9014    7.9504 H         1 TWB1        0.0926
     25  H2         23.1735   12.6753    5.8861 H         1 TWB1        0.0465
     26  H6         21.9310   12.8418    4.3958 H         1 TWB1        0.0465
     27  H7         21.4006   11.8774    6.0046 H         1 TWB1        0.0465
     28  C2         23.0912   15.6442    9.8000 C.3       1 TWB1       -0.0471
     29  H8         23.8681   16.1443    9.0343 H         1 TWB1        0.0618
     30  H9         23.2079   16.1673   10.8734 H         1 TWB1        0.0618
     31  H10        23.2813   14.4688    9.9430 H         1 TWB1        0.0618
@<TRIPOS>BOND
     1      1      2 ar
     2      1     10 ar
     3      1     16 1 
     4      2      3 ar
     5      3      8 ar
     6      3     11 1 
     7      4      5 1 
     8      4     11 1 
     9      4     18 2 
    10      5      6 2 
    11      6      7 1 
    12      6      8 1 
    13      7     15 1 
    14      8      9 ar
    15      9     10 ar
    16      9     22 1 
    17     12     15 1 
    18     13     15 1 
    19     14     15 1 
    20     22     28 1 
    21      2     17 1 
    22      5     19 1 
    23      7     20 1 
    24      7     21 1 
    25     10     24 1 
    26     14     23 1 
    27     16     25 1 
    28     16     26 1 
    29     16     27 1 
    30     28     29 1 
    31     28     30 1 
    32     28     31 1 
@<TRIPOS>SUBSTRUCTURE
     1 TWB1         1 MOLECULE 1 A  TWB 
