@<TRIPOS>MOLECULE
TWB
   27    28     1     0     0
SMALL
bcc


@<TRIPOS>ATOM
      1 C02         21.4960    14.0740     6.2420 ca         1 TWB      -0.021300
      2 C03         20.5550    14.8400     5.6090 ca         1 TWB      -0.182000
      3 C04         20.0350    15.9780     6.2030 ca         1 TWB       0.176100
      4 C06         18.5550    17.7490     6.0980 c          1 TWB       0.738800
      5 C08         18.8750    18.1710     7.4240 cc         1 TWB      -0.320200
      6 C09         19.7940    17.4920     8.1350 cd         1 TWB       0.159600
      7 C10         20.0470    18.0640     9.5170 c3         1 TWB      -0.297400
      8 C15         20.4420    16.3450     7.4880 ca         1 TWB      -0.148800
      9 C           21.4410    15.5810     8.1000 ca         1 TWB       0.215900
     10 C17         21.9510    14.4650     7.4890 ca         1 TWB      -0.218000
     11 O           19.1170    16.6810     5.4870 os         1 TWB      -0.343200
     12 O12         19.2910    17.9820    12.1210 o          1 TWB      -0.848500
     13 O13         19.5760    15.7460    10.9170 o          1 TWB      -0.848500
     14 O14         17.5910    17.2340    10.4070 oh         1 TWB      -0.795400
     15 P11         19.1370    17.1850    10.8480 p5         1 TWB       1.327600
     16 C1          22.0270    12.8090     5.5880 c3         1 TWB      -0.051800
     17 H1          20.2300    14.5720     4.7010 ha         1 TWB       0.148000
     18 O2          17.7090    18.4400     5.5440 o          1 TWB      -0.614500
     19 H3          18.4030    18.9530     7.8060 ha         1 TWB       0.175000
     20 H4          21.2180    18.1390     9.7650 hc         1 TWB       0.089200
     21 H5          19.6060    19.1770     9.5970 hc         1 TWB       0.089200
     22 F           21.9190    15.9300     9.2960 f          1 TWB      -0.125900
     23 H11         17.1610    18.0750    10.7450 ho         1 TWB       0.427000
     24 H           22.6550    13.9270     7.9520 ha         1 TWB       0.143000
     25 H2          23.2240    12.8540     5.5000 hc         1 TWB       0.042700
     26 H6          21.5640    12.6710     4.4890 hc         1 TWB       0.042700
     27 H7          21.7160    11.8560     6.2500 hc         1 TWB       0.042700
@<TRIPOS>BOND
     1     1     2 ar  
     2     1    10 ar  
     3     1    16 1   
     4     2     3 ar  
     5     3     8 ar  
     6     3    11 1   
     7     4     5 1   
     8     4    11 1   
     9     4    18 2   
    10     5     6 2   
    11     6     7 1   
    12     6     8 1   
    13     7    15 1   
    14     8     9 ar  
    15     9    10 ar  
    16     9    22 1   
    17    12    15 1   
    18    13    15 1   
    19    14    15 1   
    20     2    17 1   
    21     5    19 1   
    22     7    20 1   
    23     7    21 1   
    24    10    24 1   
    25    14    23 1   
    26    16    25 1   
    27    16    26 1   
    28    16    27 1   
@<TRIPOS>SUBSTRUCTURE
     1 TWB         1 TEMP              0 ****  ****    0 ROOT
