# Molecule written by the XED library from Cresset
@<TRIPOS>MOLECULE
A TWB 301
    24     25      1
SMALL
USER_CHARGES
@<TRIPOS>ATOM
      1  C02        21.4700   14.0668    6.2358 C.ar      1 TWB1        0.1272
      2  C03        20.5455   14.8326    5.5716 C.ar      1 TWB1       -0.0724
      3  C04        20.0110   15.9683    6.1578 C.ar      1 TWB1        0.1018
      4  C06        18.5424   17.7507    6.0431 C.2       1 TWB1        0.2645
      5  C08        18.8581   18.1775    7.3662 C.2       1 TWB1       -0.0640
      6  C09        19.7640   17.4924    8.0883 C.2       1 TWB1        0.0204
      7  C10        20.0169   18.0808    9.4635 C.3       1 TWB1       -0.0010
      8  C15        20.3964   16.3305    7.4536 C.ar      1 TWB1        0.0022
      9  C          21.3605   15.5508    8.0980 C.ar      1 TWB1        0.1401
     10  C17        21.8891   14.4373    7.5043 C.ar      1 TWB1       -0.0608
     11  O          19.1029   16.6789    5.4325 O.3       1 TWB1       -0.0999
     12  O12        19.3371   17.9815   12.0952 O.2       1 TWB1       -0.3354
     13  O13        19.6538   15.7560   10.8850 O.2       1 TWB1       -0.3354
     14  O14        17.6165   17.1889   10.4218 O.2       1 TWB1       -0.5166
     15  P11        19.1731   17.1811   10.8258 P.3       1 TWB1        0.6749
     16  F          21.9634   12.9635    5.6568 F         1 TWB1       -0.1435
     17  H1         20.2484   14.5676    4.6531 H         1 TWB1        0.0949
     18  O2         17.7000   18.4588    5.5074 O.2       1 TWB1       -0.4079
     19  H3         18.3953   18.9701    7.7384 H         1 TWB1        0.0947
     20  H4         21.1896   18.2007    9.6817 H         1 TWB1        0.0540
     21  H5         19.5362   19.1766    9.5456 H         1 TWB1        0.0540
     22  F1         21.7820   15.8921    9.3114 F         1 TWB1       -0.1418
     23  H11        17.1805   18.0309   10.7495 H         1 TWB1        0.3295
     24  H          22.5735   13.8905    7.9890 H         1 TWB1        0.0956
@<TRIPOS>BOND
     1      1      2 ar
     2      1     10 ar
     3      1     16 1 
     4      2      3 ar
     5      3      8 ar
     6      3     11 1 
     7      4      5 1 
     8      4     11 1 
     9      4     18 2 
    10      5      6 2 
    11      6      7 1 
    12      6      8 1 
    13      7     15 1 
    14      8      9 ar
    15      9     10 ar
    16      9     22 1 
    17     12     15 1 
    18     13     15 1 
    19     14     15 1 
    20      2     17 1 
    21      5     19 1 
    22      7     20 1 
    23      7     21 1 
    24     10     24 1 
    25     14     23 1 
@<TRIPOS>SUBSTRUCTURE
     1 TWB1         1 MOLECULE 1 A  TWB 
