@<TRIPOS>MOLECULE
TWB
   31    32     1     0     0
SMALL
bcc


@<TRIPOS>ATOM
      1 C02         22.2440    13.9720     6.9580 ca         1 TWB      -0.038300
      2 C03         21.2750    14.5810     6.2150 ca         1 TWB      -0.216000
      3 C04         20.6070    15.7020     6.6940 ca         1 TWB       0.094600
      4 C06         18.9420    17.3800     6.2640 c          1 TWB       0.706700
      5 C08         19.1630    17.9200     7.5680 cc         1 TWB      -0.289200
      6 C09         20.0750    17.3730     8.4060 cd         1 TWB       0.126600
      7 C10         20.0880    18.1180     9.7250 c3         1 TWB      -0.296400
      8 C15         20.8930    16.2260     7.9580 ca         1 TWB      -0.100800
      9 C           21.9290    15.6140     8.6870 ca         1 TWB       0.025700
     10 C17         22.5740    14.5120     8.1910 ca         1 TWB      -0.198000
     11 N           19.6430    16.3000     5.9000 n          1 TWB      -0.456100
     12 O12         19.2440    18.0710    12.2910 o          1 TWB      -0.853500
     13 O13         19.5570    15.8180    11.1280 o          1 TWB      -0.853500
     14 O14         17.6030    17.2970    10.5180 oh         1 TWB      -0.793400
     15 P11         19.1290    17.2560    11.0270 p5         1 TWB       1.332600
     16 C1          22.9460    12.7330     6.4230 c3         1 TWB      -0.048800
     17 H1          21.0410    14.2130     5.3160 ha         1 TWB       0.121000
     18 O2          18.1060    17.9350     5.5610 o          1 TWB      -0.680500
     19 H3          18.6130    18.6920     7.8490 ha         1 TWB       0.174000
     20 H4          21.1990    18.3850    10.0780 hc         1 TWB       0.080700
     21 H5          19.5210    19.1730     9.6480 hc         1 TWB       0.080700
     22 C2          22.4440    16.0990    10.0330 c3         1 TWB      -0.097800
     23 H11         17.1680    18.1530    10.8060 ho         1 TWB       0.428000
     24 H6          23.2990    14.0820     8.7270 ha         1 TWB       0.124000
     25 H           19.4700    15.9560     5.1090 hn         1 TWB       0.314500
     26 H2          23.9810    13.0440     5.8990 hc         1 TWB       0.037033
     27 H7          22.2490    12.1800     5.6140 hc         1 TWB       0.037033
     28 H8          23.1730    11.9550     7.3100 hc         1 TWB       0.037033
     29 H9          22.9740    17.1580     9.8590 hc         1 TWB       0.067367
     30 H10         23.2730    15.3700    10.5060 hc         1 TWB       0.067367
     31 H12         21.5610    16.1960    10.8330 hc         1 TWB       0.067367
@<TRIPOS>BOND
     1     1     2 ar  
     2     1    10 ar  
     3     1    16 1   
     4     2     3 ar  
     5     3     8 ar  
     6     3    11 1   
     7     4     5 1   
     8     4    11 1   
     9     4    18 2   
    10     5     6 2   
    11     6     7 1   
    12     6     8 1   
    13     7    15 1   
    14     8     9 ar  
    15     9    10 ar  
    16     9    22 1   
    17    12    15 1   
    18    13    15 1   
    19    14    15 1   
    20     2    17 1   
    21     5    19 1   
    22     7    20 1   
    23     7    21 1   
    24    10    24 1   
    25    11    25 1   
    26    14    23 1   
    27    16    26 1   
    28    16    27 1   
    29    16    28 1   
    30    22    29 1   
    31    22    30 1   
    32    22    31 1   
@<TRIPOS>SUBSTRUCTURE
     1 TWB         1 TEMP              0 ****  ****    0 ROOT
