# Molecule written by the XED library from Cresset
@<TRIPOS>MOLECULE
A TWB 301
    30     31      1
SMALL
USER_CHARGES
@<TRIPOS>ATOM
      1  C02        21.5279   14.0199    6.3149 C.ar      1 TWB1       -0.0519
      2  C03        20.6243   14.8133    5.6717 C.ar      1 TWB1       -0.0784
      3  C04        20.1152   15.9520    6.2755 C.ar      1 TWB1        0.0963
      4  C06        18.6392   17.7223    6.1179 C.2       1 TWB1        0.2720
      5  C08        18.9173   18.1363    7.4543 C.2       1 TWB1       -0.0511
      6  C09        19.8187   17.4632    8.1943 C.2       1 TWB1        0.0162
      7  C10        19.9836   18.0972    9.5606 C.3       1 TWB1       -0.0012
      8  C15        20.4899   16.2964    7.5852 C.ar      1 TWB1       -0.0064
      9  C          21.4612   15.4957    8.2126 C.ar      1 TWB1       -0.0469
     10  C17        21.9509   14.3856    7.5781 C.ar      1 TWB1       -0.0951
     11  O          19.2424   16.6722    5.5204 O.3       1 TWB1       -0.0996
     12  O12        19.2528   17.9839   12.1663 O.2       1 TWB1       -0.3354
     13  O13        19.4922   15.7588   10.9361 O.2       1 TWB1       -0.3354
     14  O14        17.5225   17.2684   10.4653 O.2       1 TWB1       -0.5166
     15  P11        19.0743   17.2041   10.8877 P.3       1 TWB1        0.6748
     16  C1         22.0618   12.7562    5.6677 C.3       1 TWB1       -0.0802
     17  H1         20.3181   14.5717    4.7512 H         1 TWB1        0.0926
     18  O2         17.7969   18.4107    5.5528 O.2       1 TWB1       -0.4018
     19  H3         18.4303   18.9163    7.8176 H         1 TWB1        0.0947
     20  H4         21.1440   18.2680    9.8108 H         1 TWB1        0.0540
     21  H5         19.4878   19.1890    9.5976 H         1 TWB1        0.0540
     22  C2         22.1252   15.6879    9.5750 C.3       1 TWB1       -0.0794
     23  H11        17.1149   18.1263   10.7859 H         1 TWB1        0.3295
     24  H          22.6343   13.8189    8.0395 H         1 TWB1        0.0910
     25  H2         23.1716   12.5079    6.0532 H         1 TWB1        0.0465
     26  H6         22.0846   12.8641    4.4726 H         1 TWB1        0.0465
     27  H7         21.3394   11.8465    5.9668 H         1 TWB1        0.0465
     28  H8         23.1481   16.2950    9.4303 H         1 TWB1        0.0465
     29  H9         22.3988   14.6252   10.0638 H         1 TWB1        0.0465
     30  H10        21.4602   16.2418   10.3944 H         1 TWB1        0.0465
@<TRIPOS>BOND
     1      1      2 ar
     2      1     10 ar
     3      1     16 1 
     4      2      3 ar
     5      3      8 ar
     6      3     11 1 
     7      4      5 1 
     8      4     11 1 
     9      4     18 2 
    10      5      6 2 
    11      6      7 1 
    12      6      8 1 
    13      7     15 1 
    14      8      9 ar
    15      9     10 ar
    16      9     22 1 
    17     12     15 1 
    18     13     15 1 
    19     14     15 1 
    20      2     17 1 
    21      5     19 1 
    22      7     20 1 
    23      7     21 1 
    24     10     24 1 
    25     14     23 1 
    26     16     25 1 
    27     16     26 1 
    28     16     27 1 
    29     22     28 1 
    30     22     29 1 
    31     22     30 1 
@<TRIPOS>SUBSTRUCTURE
     1 TWB1         1 MOLECULE 1 A  TWB 
