# Molecule written by the XED library from Cresset
@<TRIPOS>MOLECULE
A TWB 301
    25     26      1
SMALL
USER_CHARGES
@<TRIPOS>ATOM
      1  C02        22.2493   14.0279    7.0379 C.ar      1 TWB1       -0.1074
      2  C03        21.3178   14.5964    6.2086 C.ar      1 TWB1       -0.1197
      3  C04        20.6111   15.7280    6.6319 C.ar      1 TWB1       -0.0178
      4  C06        18.9854   17.4239    6.2124 C.ar      1 TWB1       -0.1062
      5  C08        19.1912   17.9235    7.5020 C.ar      1 TWB1       -0.1026
      6  C09        20.0969   17.3620    8.3461 C.ar      1 TWB1       -0.0825
      7  C10        20.1917   18.0433    9.7068 C.3       1 TWB1       -0.0034
      8  C15        20.8436   16.2446    7.9175 C.ar      1 TWB1        0.0900
      9  N          21.7893   15.6407    8.7203 N.pl3     1 TWB1       -0.1063
     10  C17        22.4841   14.5611    8.2856 C.ar      1 TWB1        0.0177
     11  C          19.6743   16.3420    5.7797 C.ar      1 TWB1       -0.1190
     12  O12        19.2792   18.0684   12.2677 O.2       1 TWB1       -0.3354
     13  O13        19.6000   15.8007   11.1392 O.2       1 TWB1       -0.3354
     14  O14        17.6507   17.2919   10.4934 O.2       1 TWB1       -0.5166
     15  P11        19.1751   17.2388   11.0102 P.3       1 TWB1        0.6740
     16  H          22.7614   13.2236    6.7335 H         1 TWB1        0.0913
     17  H1         21.1457   14.2068    5.3028 H         1 TWB1        0.0910
     18  H3         18.6551   18.7095    7.8095 H         1 TWB1        0.0908
     19  H4         21.3285   18.0879   10.0856 H         1 TWB1        0.0540
     20  H5         19.8035   19.1771    9.6392 H         1 TWB1        0.0540
     21  H11        17.2140   18.1406   10.8005 H         1 TWB1        0.3295
     22  H6         23.1719   14.1415    8.8787 H         1 TWB1        0.0979
     23  H2         18.3128   17.8588    5.6138 H         1 TWB1        0.0906
     24  H8         19.5099   15.9770    4.8624 H         1 TWB1        0.0910
     25  H7         21.9667   15.9917    9.6387 H         1 TWB1        0.1804
@<TRIPOS>BOND
     1      1      2 ar
     2      1     10 ar
     3      2      3 ar
     4      3      8 ar
     5      3     11 ar
     6      4      5 ar
     7      4     11 ar
     8      5      6 ar
     9      6      7 1 
    10      6      8 ar
    11      7     15 1 
    12      8      9 ar
    13      9     10 ar
    14     12     15 1 
    15     13     15 1 
    16     14     15 1 
    17      1     16 1 
    18      2     17 1 
    19      4     23 1 
    20      5     18 1 
    21      7     19 1 
    22      7     20 1 
    23      9     25 1 
    24     10     22 1 
    25     11     24 1 
    26     14     21 1 
@<TRIPOS>SUBSTRUCTURE
     1 TWB1         1 MOLECULE 1 A  TWB 
