# Molecule written by the XED library from Cresset
@<TRIPOS>MOLECULE
A TWB 301
    24     25      1
SMALL
USER_CHARGES
@<TRIPOS>ATOM
      1  C02        21.7094   13.9710    6.5522 C.ar      1 TWB1       -0.0772
      2  C03        20.8573   14.6390    5.7369 C.ar      1 TWB1       -0.0132
      3  C04        20.2525   15.8020    6.2081 C.ar      1 TWB1       -0.0057
      4  C06        18.7516   17.6324    5.9016 C.ar      1 TWB1       -0.0905
      5  C08        19.0056   18.0525    7.2150 C.ar      1 TWB1       -0.0689
      6  C09        19.8684   17.3827    8.0086 C.ar      1 TWB1       -0.0415
      7  C10        20.0888   17.9539    9.4015 C.3       1 TWB1       -0.0019
      8  C15        20.5328   16.2263    7.5193 C.ar      1 TWB1        0.0643
      9  N          21.4063   15.5688    8.3372 N.ar      1 TWB1       -0.3557
     10  C17        21.9626   14.4629    7.8286 C.ar      1 TWB1        0.0542
     11  C          19.3609   16.5356    5.3991 C.ar      1 TWB1       -0.0679
     12  O12        19.2853   18.0458   11.9922 O.2       1 TWB1       -0.3354
     13  O13        19.3086   15.7552   10.8638 O.2       1 TWB1       -0.3354
     14  O14        17.5127   17.4521   10.3084 O.2       1 TWB1       -0.5166
     15  P11        19.0460   17.2329   10.7416 P.3       1 TWB1        0.6745
     16  H          22.1544   13.1306    6.2380 H         1 TWB1        0.0915
     17  H1         20.6630   14.3025    4.8151 H         1 TWB1        0.0910
     18  H3         18.5384   18.8630    7.5681 H         1 TWB1        0.0908
     19  H4         21.2372   17.7979    9.7107 H         1 TWB1        0.0540
     20  H5         19.8602   19.1320    9.3927 H         1 TWB1        0.0540
     21  H7         22.6024   13.9547    8.4065 H         1 TWB1        0.0995
     22  H2         17.1145   18.2010   10.8430 H         1 TWB1        0.3295
     23  H6         18.1022   18.1466    5.3466 H         1 TWB1        0.0906
     24  H8         19.1663   16.2379    4.4638 H         1 TWB1        0.0910
@<TRIPOS>BOND
     1      1      2 ar
     2      1     10 ar
     3      2      3 ar
     4      3      8 ar
     5      3     11 ar
     6      4      5 ar
     7      4     11 ar
     8      5      6 ar
     9      6      7 1 
    10      6      8 ar
    11      7     15 1 
    12      8      9 ar
    13      9     10 ar
    14     12     15 1 
    15     13     15 1 
    16     14     15 1 
    17      1     16 1 
    18      2     17 1 
    19      4     23 1 
    20      5     18 1 
    21      7     19 1 
    22      7     20 1 
    23     10     21 1 
    24     11     24 1 
    25     14     22 1 
@<TRIPOS>SUBSTRUCTURE
     1 TWB1         1 MOLECULE 1 A  TWB 
