@<TRIPOS>MOLECULE
TWB
   27    29     1     0     0
SMALL
bcc


@<TRIPOS>ATOM
      1 C02         21.5330    14.0120     6.3830 ca         1 TWB       0.088100
      2 C03         20.7040    14.7860     5.6210 ca         1 TWB      -0.159000
      3 C04         20.1450    15.9060     6.2190 ca         1 TWB       0.150100
      4 C06         18.6700    17.6780     6.0620 c          1 TWB       0.735800
      5 C08         18.9590    18.1070     7.3940 cc         1 TWB      -0.318200
      6 C09         19.8270    17.4100     8.1510 cd         1 TWB       0.154600
      7 C10         20.1100    17.9770     9.5270 c3         1 TWB      -0.307400
      8 C15         20.4460    16.2290     7.5550 ca         1 TWB      -0.146800
      9 C           21.3040    15.4130     8.3100 ca         1 TWB      -0.042000
     10 C17         21.8210    14.3110     7.6890 ca         1 TWB       0.010100
     11 O           19.2820    16.6340     5.4550 os         1 TWB      -0.340200
     12 O12         19.3120    17.9500    12.1300 o          1 TWB      -0.853500
     13 O13         19.5520    15.7040    10.9340 o          1 TWB      -0.853500
     14 O14         17.6240    17.2590    10.3800 oh         1 TWB      -0.792400
     15 P11         19.1560    17.1540    10.8570 p5         1 TWB       1.336600
     16 O1          22.1240    12.8840     6.0330 os         1 TWB      -0.344900
     17 H1          20.4920    14.5440     4.6730 ha         1 TWB       0.164000
     18 O2          17.8100    18.3490     5.5030 o          1 TWB      -0.617500
     19 H3          18.5030    18.9080     7.7500 ha         1 TWB       0.164000
     20 H4          21.2850    17.9630     9.7690 hc         1 TWB       0.090200
     21 H5          19.7360    19.1160     9.5820 hc         1 TWB       0.090200
     22 O3          22.6060    13.3660     8.1990 os         1 TWB      -0.323900
     23 H2          21.5140    15.6210     9.2660 ha         1 TWB       0.242000
     24 H11         17.1950    18.0730    10.7810 ho         1 TWB       0.432000
     25 C1          22.7410    12.2990     7.2130 c3         1 TWB       0.321200
     26 H           23.8690    11.9600     7.0230 h2         1 TWB       0.060200
     27 H6          22.0650    11.3680     7.5510 h2         1 TWB       0.060200
@<TRIPOS>BOND
     1     1     2 ar  
     2     1    10 ar  
     3     1    16 1   
     4     2     3 ar  
     5     3     8 ar  
     6     3    11 1   
     7     4     5 1   
     8     4    11 1   
     9     4    18 2   
    10     5     6 2   
    11     6     7 1   
    12     6     8 1   
    13     7    15 1   
    14     8     9 ar  
    15     9    10 ar  
    16    10    22 1   
    17    12    15 1   
    18    13    15 1   
    19    14    15 1   
    20    16    25 1   
    21    25    22 1   
    22     2    17 1   
    23     5    19 1   
    24     7    20 1   
    25     7    21 1   
    26     9    23 1   
    27    14    24 1   
    28    25    26 1   
    29    25    27 1   
@<TRIPOS>SUBSTRUCTURE
     1 TWB         1 TEMP              0 ****  ****    0 ROOT
