@<TRIPOS>MOLECULE
TWB
   28    29     1     0     0
SMALL
bcc


@<TRIPOS>ATOM
      1 C02         21.6020    13.9240     6.4120 ca         1 TWB       0.150100
      2 C03         20.7600    14.7350     5.6940 ca         1 TWB      -0.206000
      3 C04         20.1770    15.8550     6.2590 ca         1 TWB       0.175100
      4 C06         18.7090    17.6270     6.0700 c          1 TWB       0.736800
      5 C08         18.9870    18.0730     7.3950 cc         1 TWB      -0.325200
      6 C09         19.8450    17.3780     8.1640 cd         1 TWB       0.158600
      7 C10         20.1190    17.9660     9.5300 c3         1 TWB      -0.307400
      8 C15         20.4650    16.1840     7.5870 ca         1 TWB      -0.175800
      9 C           21.3210    15.3580     8.3180 ca         1 TWB      -0.031000
     10 C17         21.8810    14.2520     7.7400 ca         1 TWB      -0.238000
     11 O           19.3210    16.5720     5.4820 os         1 TWB      -0.342200
     12 O12         19.3100    17.9540    12.1250 o          1 TWB      -0.856500
     13 O13         19.5420    15.7040    10.9310 o          1 TWB      -0.856500
     14 O14         17.6250    17.2690    10.3680 oh         1 TWB      -0.791400
     15 P11         19.1530    17.1550    10.8540 p5         1 TWB       1.338600
     16 O1          22.1030    12.8420     5.8080 os         1 TWB      -0.335900
     17 H1          20.5500    14.5050     4.7440 ha         1 TWB       0.157000
     18 O2          17.8560    18.2980     5.5050 o          1 TWB      -0.620500
     19 H3          18.5340    18.8840     7.7380 ha         1 TWB       0.161000
     20 H4          21.2910    17.9530     9.7840 hc         1 TWB       0.089200
     21 H5          19.7500    19.1060     9.5740 hc         1 TWB       0.089200
     22 H           22.4910    13.6700     8.2790 ha         1 TWB       0.139000
     23 H2          21.5210    15.5720     9.2760 ha         1 TWB       0.222000
     24 H11         17.1900    18.0700    10.7890 ho         1 TWB       0.432000
     25 C1          22.3750    11.6820     6.6140 c3         1 TWB       0.116700
     26 H6          23.3950    11.8210     7.2290 h1         1 TWB       0.040033
     27 H7          21.4660    11.4980     7.3760 h1         1 TWB       0.040033
     28 H8          22.4750    10.7100     5.9200 h1         1 TWB       0.040033
@<TRIPOS>BOND
     1     1     2 ar  
     2     1    10 ar  
     3     1    16 1   
     4     2     3 ar  
     5     3     8 ar  
     6     3    11 1   
     7     4     5 1   
     8     4    11 1   
     9     4    18 2   
    10     5     6 2   
    11     6     7 1   
    12     6     8 1   
    13     7    15 1   
    14     8     9 ar  
    15     9    10 ar  
    16    12    15 1   
    17    13    15 1   
    18    14    15 1   
    19    16    25 1   
    20     2    17 1   
    21     5    19 1   
    22     7    20 1   
    23     7    21 1   
    24     9    23 1   
    25    10    22 1   
    26    14    24 1   
    27    25    26 1   
    28    25    27 1   
    29    25    28 1   
@<TRIPOS>SUBSTRUCTURE
     1 TWB         1 TEMP              0 ****  ****    0 ROOT
