# Molecule written by the XED library from Cresset
@<TRIPOS>MOLECULE
A TWB 301
    31     32      1
SMALL
USER_CHARGES
@<TRIPOS>ATOM
      1  C02        22.2435   13.9723    6.9579 C.ar      1 TWB1       -0.0537
      2  C03        21.2751   14.5805    6.2149 C.ar      1 TWB1       -0.0993
      3  C04        20.6071   15.7016    6.6938 C.ar      1 TWB1        0.1036
      4  C06        18.9424   17.3795    6.2636 C.2       1 TWB1        0.2759
      5  C08        19.1626   17.9199    7.5681 C.2       1 TWB1       -0.0579
      6  C09        20.0753   17.3733    8.4059 C.2       1 TWB1        0.0095
      7  C10        20.0876   18.1178    9.7249 C.3       1 TWB1       -0.0014
      8  C15        20.8926   16.2256    7.9577 C.ar      1 TWB1       -0.0184
      9  C          21.9292   15.6135    8.6870 C.ar      1 TWB1       -0.0509
     10  C17        22.5737   14.5117    8.1913 C.ar      1 TWB1       -0.1053
     11  N          19.6426   16.2999    5.8999 N.am      1 TWB1       -0.1995
     12  O12        19.2435   18.0709   12.2908 O.2       1 TWB1       -0.3354
     13  O13        19.5570   15.8177   11.1284 O.2       1 TWB1       -0.3354
     14  O14        17.6032   17.2969   10.5180 O.2       1 TWB1       -0.5166
     15  P11        19.1288   17.2565   11.0266 P.3       1 TWB1        0.6748
     16  C1         22.9456   12.7330    6.4234 C.3       1 TWB1       -0.0802
     17  H1         21.0415   14.2130    5.3159 H         1 TWB1        0.0921
     18  O2         18.1058   17.9346    5.5608 O.2       1 TWB1       -0.4552
     19  H3         18.6125   18.6922    7.8493 H         1 TWB1        0.0942
     20  H4         21.1992   18.3846   10.0776 H         1 TWB1        0.0540
     21  H5         19.5207   19.1727    9.6483 H         1 TWB1        0.0540
     22  C2         22.4440   16.0985   10.0329 C.3       1 TWB1       -0.0794
     23  H11        17.1682   18.1529   10.8062 H         1 TWB1        0.3295
     24  H6         23.2994   14.0822    8.7274 H         1 TWB1        0.0910
     25  H          19.4699   15.9558    5.1091 H         1 TWB1        0.2056
     26  H2         23.9807   13.0438    5.8986 H         1 TWB1        0.0465
     27  H7         22.2490   12.1800    5.6144 H         1 TWB1        0.0465
     28  H8         23.1733   11.9549    7.3101 H         1 TWB1        0.0465
     29  H9         22.9745   17.1581    9.8588 H         1 TWB1        0.0465
     30  H10        23.2728   15.3701   10.5064 H         1 TWB1        0.0465
     31  H12        21.5607   16.1960   10.8328 H         1 TWB1        0.0465
@<TRIPOS>BOND
     1      1      2 ar
     2      1     10 ar
     3      1     16 1 
     4      2      3 ar
     5      3      8 ar
     6      3     11 1 
     7      4      5 1 
     8      4     11 am
     9      4     18 2 
    10      5      6 2 
    11      6      7 1 
    12      6      8 1 
    13      7     15 1 
    14      8      9 ar
    15      9     10 ar
    16      9     22 1 
    17     12     15 1 
    18     13     15 1 
    19     14     15 1 
    20      2     17 1 
    21      5     19 1 
    22      7     20 1 
    23      7     21 1 
    24     10     24 1 
    25     11     25 1 
    26     14     23 1 
    27     16     26 1 
    28     16     27 1 
    29     16     28 1 
    30     22     29 1 
    31     22     30 1 
    32     22     31 1 
@<TRIPOS>SUBSTRUCTURE
     1 TWB1         1 MOLECULE 1 A  TWB 
