# Molecule written by the XED library from Cresset
@<TRIPOS>MOLECULE
A TWB 301
    28     29      1
SMALL
USER_CHARGES
@<TRIPOS>ATOM
      1  C02        21.6024   13.9235    6.4118 C.ar      1 TWB1        0.0753
      2  C03        20.7601   14.7347    5.6943 C.ar      1 TWB1       -0.0740
      3  C04        20.1771   15.8547    6.2594 C.ar      1 TWB1        0.0972
      4  C06        18.7089   17.6267    6.0702 C.2       1 TWB1        0.2676
      5  C08        18.9867   18.0733    7.3951 C.2       1 TWB1       -0.0585
      6  C09        19.8448   17.3781    8.1636 C.2       1 TWB1        0.0159
      7  C10        20.1186   17.9658    9.5305 C.3       1 TWB1       -0.0012
      8  C15        20.4649   16.1843    7.5873 C.ar      1 TWB1       -0.0207
      9  C          21.3214   15.3579    8.3180 C.ar      1 TWB1       -0.0645
     10  C17        21.8810   14.2524    7.7403 C.ar      1 TWB1       -0.0923
     11  O          19.3211   16.5723    5.4816 O.3       1 TWB1       -0.0998
     12  O12        19.3102   17.9538   12.1250 O.2       1 TWB1       -0.3354
     13  O13        19.5419   15.7041   10.9310 O.2       1 TWB1       -0.3354
     14  O14        17.6247   17.2691   10.3685 O.2       1 TWB1       -0.5166
     15  P11        19.1529   17.1549   10.8542 P.3       1 TWB1        0.6748
     16  O1         22.1028   12.8424    5.8076 O.3       1 TWB1       -0.2003
     17  H1         20.5505   14.5048    4.7440 H         1 TWB1        0.0942
     18  O2         17.8558   18.2980    5.5045 O.2       1 TWB1       -0.4052
     19  H3         18.5337   18.8839    7.7382 H         1 TWB1        0.0947
     20  H4         21.2907   17.9526    9.7839 H         1 TWB1        0.0540
     21  H5         19.7500   19.1058    9.5744 H         1 TWB1        0.0540
     22  H          22.4905   13.6699    8.2788 H         1 TWB1        0.0924
     23  H2         21.5212   15.5719    9.2760 H         1 TWB1        0.0910
     24  H11        17.1896   18.0695   10.7886 H         1 TWB1        0.3295
     25  C1         22.3754   11.6825    6.6139 C.3       1 TWB1       -0.0471
     26  H6         23.3950   11.8208    7.2295 H         1 TWB1        0.0618
     27  H7         21.4662   11.4978    7.3759 H         1 TWB1        0.0618
     28  H8         22.4748   10.7097    5.9200 H         1 TWB1        0.0618
@<TRIPOS>BOND
     1      1      2 ar
     2      1     10 ar
     3      1     16 1 
     4      2      3 ar
     5      3      8 ar
     6      3     11 1 
     7      4      5 1 
     8      4     11 1 
     9      4     18 2 
    10      5      6 2 
    11      6      7 1 
    12      6      8 1 
    13      7     15 1 
    14      8      9 ar
    15      9     10 ar
    16     12     15 1 
    17     13     15 1 
    18     14     15 1 
    19     16     25 1 
    20      2     17 1 
    21      5     19 1 
    22      7     20 1 
    23      7     21 1 
    24      9     23 1 
    25     10     22 1 
    26     14     24 1 
    27     25     26 1 
    28     25     27 1 
    29     25     28 1 
@<TRIPOS>SUBSTRUCTURE
     1 TWB1         1 MOLECULE 1 A  TWB 
