@<TRIPOS>MOLECULE
TWB
   30    31     1     0     0
SMALL
bcc


@<TRIPOS>ATOM
      1 C02         21.6020    13.9130     6.4820 ca         1 TWB      -0.047300
      2 C03         20.7590    14.6940     5.7360 ca         1 TWB      -0.173000
      3 C04         20.1750    15.8390     6.2610 ca         1 TWB       0.143100
      4 C06         18.7100    17.6140     6.0400 c          1 TWB       0.735800
      5 C08         18.9740    18.0800     7.3640 cc         1 TWB      -0.320200
      6 C09         19.8330    17.3990     8.1430 cd         1 TWB       0.152600
      7 C10         20.1010    17.9910     9.5090 c3         1 TWB      -0.307400
      8 C15         20.4600    16.2010     7.5780 ca         1 TWB      -0.144800
      9 C           21.3170    15.3970     8.3290 ca         1 TWB      -0.060000
     10 C17         21.8830    14.2700     7.7980 ca         1 TWB      -0.119300
     11 O           19.3200    16.5470     5.4660 os         1 TWB      -0.342200
     12 O12         19.2960    17.9660    12.1070 o          1 TWB      -0.856500
     13 O13         19.5090    15.7210    10.9010 o          1 TWB      -0.856500
     14 O14         17.6080    17.3040    10.3440 oh         1 TWB      -0.791400
     15 P11         19.1340    17.1750    10.8310 p5         1 TWB       1.337600
     16 C1          22.1820    12.6580     5.8460 c3         1 TWB      -0.048800
     17 H1          20.5510    14.4290     4.7950 ha         1 TWB       0.140000
     18 O1          17.8620    18.2870     5.4700 o          1 TWB      -0.623500
     19 H3          18.5130    18.8950     7.6950 ha         1 TWB       0.161000
     20 H4          21.2740    17.9920     9.7620 hc         1 TWB       0.089700
     21 H5          19.7130    19.1250     9.5370 hc         1 TWB       0.089700
     22 C2          22.7830    13.4370     8.6980 c3         1 TWB      -0.044800
     23 H           21.5120    15.6410     9.2790 ha         1 TWB       0.219000
     24 H2          23.3790    12.6600     5.9270 hc         1 TWB       0.038033
     25 H6          21.8910    12.5790     4.6850 hc         1 TWB       0.038033
     26 H7          21.7450    11.6940     6.4130 hc         1 TWB       0.038033
     27 H8          23.8070    13.1810     8.1270 hc         1 TWB       0.040700
     28 H9          23.0450    14.0240     9.7120 hc         1 TWB       0.040700
     29 H10         22.2070    12.4180     8.9680 hc         1 TWB       0.040700
     30 H11         17.1280    17.9830    10.9030 ho         1 TWB       0.432000
@<TRIPOS>BOND
     1     1     2 ar  
     2     1    10 ar  
     3     1    16 1   
     4     2     3 ar  
     5     3     8 ar  
     6     3    11 1   
     7     4     5 1   
     8     4    11 1   
     9     4    18 2   
    10     5     6 2   
    11     6     7 1   
    12     6     8 1   
    13     7    15 1   
    14     8     9 ar  
    15     9    10 ar  
    16    10    22 1   
    17    12    15 1   
    18    13    15 1   
    19    14    15 1   
    20     2    17 1   
    21     5    19 1   
    22     7    20 1   
    23     7    21 1   
    24     9    23 1   
    25    14    30 1   
    26    16    24 1   
    27    16    25 1   
    28    16    26 1   
    29    22    27 1   
    30    22    28 1   
    31    22    29 1   
@<TRIPOS>SUBSTRUCTURE
     1 TWB         1 TEMP              0 ****  ****    0 ROOT
