@<TRIPOS>MOLECULE
TWB
   25    26     1     0     0
SMALL
bcc


@<TRIPOS>ATOM
      1 C02         21.5870    14.1170     6.2970 ca         1 TWB      -0.092000
      2 C03         20.6580    14.8610     5.6250 ca         1 TWB      -0.214000
      3 C04         20.0780    15.9680     6.2340 ca         1 TWB       0.089600
      4 C06         18.5220    17.7940     6.0830 c          1 TWB       0.706700
      5 C08         18.8640    18.1870     7.4170 cc         1 TWB      -0.290200
      6 C09         19.7680    17.4830     8.1360 cd         1 TWB       0.127600
      7 C10         20.0850    18.0300     9.5090 c3         1 TWB      -0.307400
      8 C15         20.4220    16.3110     7.5390 ca         1 TWB      -0.125800
      9 C           21.3650    15.5340     8.2150 ca         1 TWB      -0.059000
     10 C17         21.9430    14.4590     7.5970 ca         1 TWB      -0.183000
     11 N           19.1440    16.7290     5.5540 n          1 TWB      -0.454100
     12 O12         19.3270    17.9690    12.1090 o          1 TWB      -0.859000
     13 O13         19.6350    15.7330    10.9060 o          1 TWB      -0.859000
     14 O14         17.6340    17.2140    10.3950 oh         1 TWB      -0.791400
     15 P11         19.1780    17.1660    10.8410 p5         1 TWB       1.338600
     16 H           22.0080    13.3250     5.8510 ha         1 TWB       0.114000
     17 H1          20.3950    14.6130     4.6920 ha         1 TWB       0.118000
     18 O2          17.6750    18.4620     5.5050 o          1 TWB      -0.685500
     19 H3          18.4190    18.9820     7.8080 ha         1 TWB       0.158000
     20 H4          21.2670    18.0100     9.7140 hc         1 TWB       0.086200
     21 H5          19.7240    19.1700     9.5920 hc         1 TWB       0.086200
     22 H2          21.6180    15.7620     9.1560 ha         1 TWB       0.217000
     23 H11         17.2000    18.0470    10.7450 ho         1 TWB       0.430000
     24 H6          22.6250    13.9120     8.0850 ha         1 TWB       0.131000
     25 H7          18.9330    16.5000     4.7320 hn         1 TWB       0.314500
@<TRIPOS>BOND
     1     1     2 ar  
     2     1    10 ar  
     3     2     3 ar  
     4     3     8 ar  
     5     3    11 1   
     6     4     5 1   
     7     4    11 1   
     8     4    18 2   
     9     5     6 2   
    10     6     7 1   
    11     6     8 1   
    12     7    15 1   
    13     8     9 ar  
    14     9    10 ar  
    15    12    15 1   
    16    13    15 1   
    17    14    15 1   
    18     1    16 1   
    19     2    17 1   
    20     5    19 1   
    21     7    20 1   
    22     7    21 1   
    23     9    22 1   
    24    10    24 1   
    25    11    25 1   
    26    14    23 1   
@<TRIPOS>SUBSTRUCTURE
     1 TWB         1 TEMP              0 ****  ****    0 ROOT
