# Molecule written by the XED library from Cresset
@<TRIPOS>MOLECULE
A TWB 301
    27     29      1
SMALL
USER_CHARGES
@<TRIPOS>ATOM
      1  C02        21.5334   14.0119    6.3826 C.ar      1 TWB1        0.0865
      2  C03        20.7042   14.7856    5.6206 C.ar      1 TWB1       -0.0708
      3  C04        20.1445   15.9063    6.2188 C.ar      1 TWB1        0.0850
      4  C06        18.6703   17.6781    6.0623 C.2       1 TWB1        0.2670
      5  C08        18.9587   18.1071    7.3937 C.2       1 TWB1       -0.0585
      6  C09        19.8267   17.4095    8.1514 C.2       1 TWB1        0.0154
      7  C10        20.1096   17.9775    9.5272 C.3       1 TWB1       -0.0012
      8  C15        20.4462   16.2286    7.5551 C.ar      1 TWB1       -0.0186
      9  C          21.3042   15.4134    8.3096 C.ar      1 TWB1       -0.0625
     10  C17        21.8212   14.3113    7.6889 C.ar      1 TWB1        0.0637
     11  O          19.2818   16.6341    5.4553 O.3       1 TWB1       -0.1011
     12  O12        19.3118   17.9499   12.1297 O.2       1 TWB1       -0.3354
     13  O13        19.5518   15.7042   10.9344 O.2       1 TWB1       -0.3354
     14  O14        17.6242   17.2589   10.3798 O.2       1 TWB1       -0.5166
     15  P11        19.1558   17.1538   10.8568 P.3       1 TWB1        0.6748
     16  O1         22.1243   12.8842    6.0329 O.3       1 TWB1       -0.1733
     17  H1         20.4924   14.5445    4.6726 H         1 TWB1        0.0942
     18  O2         17.8100   18.3485    5.5034 O.2       1 TWB1       -0.4056
     19  H3         18.5025   18.9078    7.7505 H         1 TWB1        0.0947
     20  H4         21.2850   17.9634    9.7688 H         1 TWB1        0.0540
     21  H5         19.7357   19.1158    9.5816 H         1 TWB1        0.0540
     22  O3         22.6056   13.3659    8.1987 O.3       1 TWB1       -0.1780
     23  H2         21.5135   15.6209    9.2660 H         1 TWB1        0.0928
     24  H11        17.1954   18.0727   10.7807 H         1 TWB1        0.3295
     25  C1         22.7405   12.2987    7.2135 C.3       1 TWB1        0.0592
     26  H          23.8694   11.9596    7.0228 H         1 TWB1        0.0806
     27  H6         22.0653   11.3683    7.5512 H         1 TWB1        0.0806
@<TRIPOS>BOND
     1      1      2 ar
     2      1     10 ar
     3      1     16 1 
     4      2      3 ar
     5      3      8 ar
     6      3     11 1 
     7      4      5 1 
     8      4     11 1 
     9      4     18 2 
    10      5      6 2 
    11      6      7 1 
    12      6      8 1 
    13      7     15 1 
    14      8      9 ar
    15      9     10 ar
    16     10     22 1 
    17     12     15 1 
    18     13     15 1 
    19     14     15 1 
    20     16     25 1 
    21     25     22 1 
    22      2     17 1 
    23      5     19 1 
    24      7     20 1 
    25      7     21 1 
    26      9     23 1 
    27     14     24 1 
    28     25     26 1 
    29     25     27 1 
@<TRIPOS>SUBSTRUCTURE
     1 TWB1         1 MOLECULE 1 A  TWB 
