# Molecule written by the XED library from Cresset
@<TRIPOS>MOLECULE
A TWB 301
    27     28      1
SMALL
USER_CHARGES
@<TRIPOS>ATOM
      1  C02        21.4956   14.0741    6.2423 C.ar      1 TWB1       -0.0466
      2  C03        20.5552   14.8402    5.6086 C.ar      1 TWB1       -0.0908
      3  C04        20.0347   15.9784    6.2030 C.ar      1 TWB1        0.0979
      4  C06        18.5547   17.7487    6.0978 C.2       1 TWB1        0.2682
      5  C08        18.8752   18.1711    7.4240 C.2       1 TWB1       -0.0579
      6  C09        19.7945   17.4925    8.1347 C.2       1 TWB1        0.0203
      7  C10        20.0473   18.0636    9.5166 C.3       1 TWB1       -0.0010
      8  C15        20.4425   16.3447    7.4881 C.ar      1 TWB1        0.0100
      9  C          21.4405   15.5809    8.1003 C.ar      1 TWB1        0.1359
     10  C17        21.9507   14.4653    7.4887 C.ar      1 TWB1       -0.0792
     11  O          19.1171   16.6810    5.4867 O.3       1 TWB1       -0.0998
     12  O12        19.2910   17.9817   12.1213 O.2       1 TWB1       -0.3354
     13  O13        19.5755   15.7464   10.9167 O.2       1 TWB1       -0.3354
     14  O14        17.5906   17.2341   10.4066 O.2       1 TWB1       -0.5166
     15  P11        19.1374   17.1853   10.8483 P.3       1 TWB1        0.6749
     16  C1         22.0268   12.8090    5.5881 C.3       1 TWB1       -0.0802
     17  H1         20.2303   14.5718    4.7006 H         1 TWB1        0.0926
     18  O2         17.7086   18.4397    5.5437 O.2       1 TWB1       -0.4051
     19  H3         18.4027   18.9531    7.8065 H         1 TWB1        0.0947
     20  H4         21.2182   18.1386    9.7648 H         1 TWB1        0.0540
     21  H5         19.6061   19.1765    9.5965 H         1 TWB1        0.0540
     22  F          21.9186   15.9298    9.2960 F         1 TWB1       -0.1418
     23  H11        17.1610   18.0749   10.7449 H         1 TWB1        0.3295
     24  H          22.6554   13.9268    7.9518 H         1 TWB1        0.0933
     25  H2         23.2235   12.8544    5.4999 H         1 TWB1        0.0465
     26  H6         21.5637   12.6706    4.4886 H         1 TWB1        0.0465
     27  H7         21.7156   11.8557    6.2499 H         1 TWB1        0.0465
@<TRIPOS>BOND
     1      1      2 ar
     2      1     10 ar
     3      1     16 1 
     4      2      3 ar
     5      3      8 ar
     6      3     11 1 
     7      4      5 1 
     8      4     11 1 
     9      4     18 2 
    10      5      6 2 
    11      6      7 1 
    12      6      8 1 
    13      7     15 1 
    14      8      9 ar
    15      9     10 ar
    16      9     22 1 
    17     12     15 1 
    18     13     15 1 
    19     14     15 1 
    20      2     17 1 
    21      5     19 1 
    22      7     20 1 
    23      7     21 1 
    24     10     24 1 
    25     14     23 1 
    26     16     25 1 
    27     16     26 1 
    28     16     27 1 
@<TRIPOS>SUBSTRUCTURE
     1 TWB1         1 MOLECULE 1 A  TWB 
