# Molecule written by the XED library from Cresset
@<TRIPOS>MOLECULE
A TWB 301
    30     31      1
SMALL
USER_CHARGES
@<TRIPOS>ATOM
      1  C02        21.6019   13.9132    6.4823 C.ar      1 TWB1       -0.0492
      2  C03        20.7588   14.6945    5.7358 C.ar      1 TWB1       -0.0780
      3  C04        20.1747   15.8388    6.2605 C.ar      1 TWB1        0.0959
      4  C06        18.7101   17.6137    6.0405 C.2       1 TWB1        0.2720
      5  C08        18.9745   18.0803    7.3642 C.2       1 TWB1       -0.0511
      6  C09        19.8326   17.3995    8.1433 C.2       1 TWB1        0.0159
      7  C10        20.1008   17.9910    9.5088 C.3       1 TWB1       -0.0012
      8  C15        20.4600   16.2008    7.5780 C.ar      1 TWB1       -0.0092
      9  C          21.3171   15.3972    8.3293 C.ar      1 TWB1       -0.0656
     10  C17        21.8826   14.2700    7.7978 C.ar      1 TWB1       -0.0761
     11  O          19.3204   16.5468    5.4664 O.3       1 TWB1       -0.0996
     12  O12        19.2957   17.9656   12.1071 O.2       1 TWB1       -0.3354
     13  O13        19.5093   15.7208   10.9012 O.2       1 TWB1       -0.3354
     14  O14        17.6075   17.3036   10.3439 O.2       1 TWB1       -0.5166
     15  P11        19.1343   17.1754   10.8306 P.3       1 TWB1        0.6748
     16  C1         22.1823   12.6575    5.8461 C.3       1 TWB1       -0.0798
     17  H1         20.5510   14.4291    4.7945 H         1 TWB1        0.0926
     18  O1         17.8623   18.2869    5.4698 O.2       1 TWB1       -0.4018
     19  H3         18.5129   18.8953    7.6946 H         1 TWB1        0.0947
     20  H4         21.2745   17.9921    9.7620 H         1 TWB1        0.0540
     21  H5         19.7128   19.1248    9.5370 H         1 TWB1        0.0540
     22  C2         22.7826   13.4365    8.6976 C.3       1 TWB1       -0.0798
     23  H          21.5120   15.6408    9.2794 H         1 TWB1        0.0912
     24  H2         23.3794   12.6597    5.9269 H         1 TWB1        0.0465
     25  H6         21.8907   12.5790    4.6846 H         1 TWB1        0.0465
     26  H7         21.7453   11.6943    6.4134 H         1 TWB1        0.0465
     27  H8         23.8070   13.1806    8.1275 H         1 TWB1        0.0465
     28  H9         23.0453   14.0245    9.7118 H         1 TWB1        0.0465
     29  H10        22.2068   12.4185    8.9684 H         1 TWB1        0.0465
     30  H11        17.1277   17.9829   10.9034 H         1 TWB1        0.3295
@<TRIPOS>BOND
     1      1      2 ar
     2      1     10 ar
     3      1     16 1 
     4      2      3 ar
     5      3      8 ar
     6      3     11 1 
     7      4      5 1 
     8      4     11 1 
     9      4     18 2 
    10      5      6 2 
    11      6      7 1 
    12      6      8 1 
    13      7     15 1 
    14      8      9 ar
    15      9     10 ar
    16     10     22 1 
    17     12     15 1 
    18     13     15 1 
    19     14     15 1 
    20      2     17 1 
    21      5     19 1 
    22      7     20 1 
    23      7     21 1 
    24      9     23 1 
    25     14     30 1 
    26     16     24 1 
    27     16     25 1 
    28     16     26 1 
    29     22     27 1 
    30     22     28 1 
    31     22     29 1 
@<TRIPOS>SUBSTRUCTURE
     1 TWB1         1 MOLECULE 1 A  TWB 
