# Molecule written by the XED library from Cresset
@<TRIPOS>MOLECULE
A TWB 301
    24     25      1
SMALL
USER_CHARGES
@<TRIPOS>ATOM
      1  C02        22.2153   14.0506    7.0130 C.ar      1 TWB1       -0.0727
      2  C03        21.3002   14.6379    6.2118 C.ar      1 TWB1       -0.0754
      3  C04        20.5855   15.7727    6.6499 C.ar      1 TWB1        0.0601
      4  C06        19.0339   17.3854    6.2106 C.ar      1 TWB1        0.0548
      5  C08        19.1936   17.9236    7.4794 C.ar      1 TWB1       -0.0730
      6  C09        20.0802   17.3870    8.3534 C.ar      1 TWB1        0.0190
      7  C10        20.1881   18.0607    9.7128 C.3       1 TWB1       -0.0011
      8  C15        20.8220   16.2744    7.9427 C.ar      1 TWB1       -0.0022
      9  C          21.7888   15.6361    8.7547 C.ar      1 TWB1       -0.0675
     10  C17        22.4666   14.5598    8.2995 C.ar      1 TWB1       -0.0909
     11  N          19.6971   16.3147    5.7696 N.ar      1 TWB1       -0.3562
     12  O12        19.2852   18.0696   12.2660 O.2       1 TWB1       -0.3354
     13  O13        19.6078   15.8023   11.1382 O.2       1 TWB1       -0.3354
     14  O14        17.6616   17.2931   10.4847 O.2       1 TWB1       -0.5166
     15  P11        19.1823   17.2407   11.0093 P.3       1 TWB1        0.6749
     16  H          22.7182   13.2481    6.6902 H         1 TWB1        0.0906
     17  H1         21.1252   14.2689    5.2986 H         1 TWB1        0.0919
     18  H3         18.6481   18.7143    7.7533 H         1 TWB1        0.0917
     19  H4         21.3299   18.0717   10.0805 H         1 TWB1        0.0540
     20  H5         19.8156   19.1993    9.6531 H         1 TWB1        0.0540
     21  H11        17.2182   18.1339   10.8039 H         1 TWB1        0.3295
     22  H6         23.1498   14.1181    8.8825 H         1 TWB1        0.0906
     23  H2         18.3724   17.8143    5.5959 H         1 TWB1        0.0995
     24  H7         21.9727   15.9810    9.6750 H         1 TWB1        0.0910
@<TRIPOS>BOND
     1      1      2 ar
     2      1     10 ar
     3      2      3 ar
     4      3      8 ar
     5      3     11 ar
     6      4      5 ar
     7      4     11 ar
     8      5      6 ar
     9      6      7 1 
    10      6      8 ar
    11      7     15 1 
    12      8      9 ar
    13      9     10 ar
    14     12     15 1 
    15     13     15 1 
    16     14     15 1 
    17      1     16 1 
    18      2     17 1 
    19      4     23 1 
    20      5     18 1 
    21      7     19 1 
    22      7     20 1 
    23      9     24 1 
    24     10     22 1 
    25     14     21 1 
@<TRIPOS>SUBSTRUCTURE
     1 TWB1         1 MOLECULE 1 A  TWB 
