# Molecule written by the XED library from Cresset
@<TRIPOS>MOLECULE
A TWB 301
    25     26      1
SMALL
USER_CHARGES
@<TRIPOS>ATOM
      1  C02        22.1641   14.0290    6.9443 C.ar      1 TWB1        0.0492
      2  C03        21.2205   14.6375    6.1695 C.ar      1 TWB1       -0.0829
      3  C04        20.5504   15.7588    6.6458 C.ar      1 TWB1        0.1094
      4  C06        18.9133   17.4608    6.2199 C.2       1 TWB1        0.2730
      5  C08        19.1188   17.9836    7.5332 C.2       1 TWB1       -0.0637
      6  C09        20.0146   17.4160    8.3730 C.2       1 TWB1        0.0132
      7  C10        20.0884   18.1153    9.7101 C.3       1 TWB1       -0.0012
      8  C15        20.8177   16.2679    7.9214 C.ar      1 TWB1       -0.0042
      9  C          21.8345   15.6531    8.6707 C.ar      1 TWB1        0.0593
     10  C17        22.4696   14.5442    8.1916 C.ar      1 TWB1       -0.0644
     11  N          19.6147   16.3841    5.8376 N.am      1 TWB1       -0.1996
     12  O12        19.2415   18.0997   12.2614 O.2       1 TWB1       -0.3354
     13  O13        19.5336   15.8328   11.1135 O.2       1 TWB1       -0.3354
     14  O14        17.5840   17.3236   10.4992 O.2       1 TWB1       -0.5166
     15  P11        19.1105   17.2730   11.0064 P.3       1 TWB1        0.6748
     16 BR          23.0862   12.5177    6.3225 Br        1 TWB1       -0.0864
     17  H1         21.0162   14.2759    5.2589 H         1 TWB1        0.0947
     18  H3         18.5761   18.7577    7.8207 H         1 TWB1        0.0942
     19  H4         21.2303   18.2392   10.0555 H         1 TWB1        0.0540
     20  H5         19.5952   19.2080    9.6637 H         1 TWB1        0.0540
     21  H11        17.1470   18.1684   10.8151 H         1 TWB1        0.3295
     22  H6         23.1784   14.1046    8.7415 H         1 TWB1        0.0962
     23  O          18.0861   18.0394    5.5263 O.2       1 TWB1       -0.4577
     24 BR1         22.4381   16.3146   10.3235 Br        1 TWB1       -0.0846
     25  H          19.4694   16.0639    5.0271 H         1 TWB1        0.2056
@<TRIPOS>BOND
     1      1      2 ar
     2      1     10 ar
     3      1     16 1 
     4      2      3 ar
     5      3      8 ar
     6      3     11 1 
     7      4      5 1 
     8      4     11 am
     9      4     23 2 
    10      5      6 2 
    11      6      7 1 
    12      6      8 1 
    13      7     15 1 
    14      8      9 ar
    15      9     10 ar
    16      9     24 1 
    17     12     15 1 
    18     13     15 1 
    19     14     15 1 
    20      2     17 1 
    21      5     18 1 
    22      7     19 1 
    23      7     20 1 
    24     10     22 1 
    25     11     25 1 
    26     14     21 1 
@<TRIPOS>SUBSTRUCTURE
     1 TWB1         1 MOLECULE 1 A  TWB 
