# Molecule written by the XED library from Cresset
@<TRIPOS>MOLECULE
A TWB 301
    28     29      1
SMALL
USER_CHARGES
@<TRIPOS>ATOM
      1  C02        22.2804   14.0232    7.1696 C.ar      1 TWB1       -0.0760
      2  C03        21.4388   14.6260    6.2769 C.ar      1 TWB1       -0.1028
      3  C04        20.6561   15.7163    6.6558 C.ar      1 TWB1        0.1029
      4  C06        19.0306   17.3978    6.1416 C.2       1 TWB1        0.2751
      5  C08        19.1575   17.9475    7.4536 C.2       1 TWB1       -0.0577
      6  C09        19.9887   17.3790    8.3480 C.2       1 TWB1        0.0092
      7  C10        20.1003   18.0801    9.6794 C.3       1 TWB1       -0.0014
      8  C15        20.7639   16.1972    7.9615 C.ar      1 TWB1       -0.0216
      9  C          21.6149   15.5580    8.8651 C.ar      1 TWB1       -0.0732
     10  C17        22.3609   14.4857    8.4745 C.ar      1 TWB1       -0.1131
     11  N          19.7691   16.3346    5.7707 N.am      1 TWB1       -0.2167
     12  O12        19.2915   18.0148   12.2540 O.2       1 TWB1       -0.3354
     13  O13        19.7176   15.7857   11.0829 O.2       1 TWB1       -0.3354
     14  O14        17.6706   17.1698   10.4886 O.2       1 TWB1       -0.5166
     15  P11        19.1993   17.1950   10.9924 P.3       1 TWB1        0.6747
     16  H          22.8420   13.2472    6.8797 H         1 TWB1        0.0906
     17  H1         21.3960   14.2756    5.3445 H         1 TWB1        0.0919
     18  O2         18.2140   17.9922    5.4456 O.2       1 TWB1       -0.4547
     19  H3         18.6227   18.7428    7.6924 H         1 TWB1        0.0942
     20  H4         21.2555   18.2106    9.9751 H         1 TWB1        0.0540
     21  H5         19.5941   19.1669    9.6386 H         1 TWB1        0.0540
     22  H2         21.6789   15.8909    9.8069 H         1 TWB1        0.0910
     23  H11        17.2087   18.0217   10.7475 H         1 TWB1        0.3295
     24  H6         22.9708   14.0372    9.1278 H         1 TWB1        0.0906
     25  C1         19.5778   15.8612    4.3849 C.3       1 TWB1        0.0509
     26  H7         18.4014   15.8738    4.1810 H         1 TWB1        0.0570
     27  H8         20.1023   16.6187    3.6155 H         1 TWB1        0.0570
     28  H9         19.9142   14.7363    4.1436 H         1 TWB1        0.0570
@<TRIPOS>BOND
     1      1      2 ar
     2      1     10 ar
     3      2      3 ar
     4      3      8 ar
     5      3     11 1 
     6      4      5 1 
     7      4     11 am
     8      4     18 2 
     9      5      6 2 
    10      6      7 1 
    11      6      8 1 
    12      7     15 1 
    13      8      9 ar
    14      9     10 ar
    15     11     25 1 
    16     12     15 1 
    17     13     15 1 
    18     14     15 1 
    19      1     16 1 
    20      2     17 1 
    21      5     19 1 
    22      7     20 1 
    23      7     21 1 
    24      9     22 1 
    25     10     24 1 
    26     14     23 1 
    27     25     26 1 
    28     25     27 1 
    29     25     28 1 
@<TRIPOS>SUBSTRUCTURE
     1 TWB1         1 MOLECULE 1 A  TWB 
