@<TRIPOS>MOLECULE
TWB
   25    26     1     0     0
SMALL
bcc


@<TRIPOS>ATOM
      1 C02         22.1640    14.0290     6.9440 ca         1 TWB       0.018100
      2 C03         21.2210    14.6370     6.1700 ca         1 TWB      -0.169000
      3 C04         20.5500    15.7590     6.6460 ca         1 TWB       0.098600
      4 C06         18.9130    17.4610     6.2200 c          1 TWB       0.708700
      5 C08         19.1190    17.9840     7.5330 cc         1 TWB      -0.280200
      6 C09         20.0150    17.4160     8.3730 cd         1 TWB       0.127600
      7 C10         20.0880    18.1150     9.7100 c3         1 TWB      -0.311400
      8 C15         20.8180    16.2680     7.9210 ca         1 TWB      -0.042800
      9 C           21.8340    15.6530     8.6710 ca         1 TWB       0.058100
     10 C17         22.4700    14.5440     8.1920 ca         1 TWB      -0.139000
     11 N           19.6150    16.3840     5.8380 n          1 TWB      -0.453100
     12 O12         19.2410    18.1000    12.2610 o          1 TWB      -0.850500
     13 O13         19.5340    15.8330    11.1140 o          1 TWB      -0.850500
     14 O14         17.5840    17.3240    10.4990 oh         1 TWB      -0.797400
     15 P11         19.1100    17.2730    11.0060 p5         1 TWB       1.328600
     16 Br          23.0860    12.5180     6.3220 br         1 TWB      -0.110100
     17 H1          21.0160    14.2760     5.2590 ha         1 TWB       0.141000
     18 H3          18.5760    18.7580     7.8210 ha         1 TWB       0.170000
     19 H4          21.2300    18.2390    10.0560 hc         1 TWB       0.092200
     20 H5          19.5950    19.2080     9.6640 hc         1 TWB       0.092200
     21 H11         17.1470    18.1680    10.8150 ho         1 TWB       0.425000
     22 H6          23.1780    14.1050     8.7420 ha         1 TWB       0.155000
     23 O           18.0860    18.0390     5.5260 o          1 TWB      -0.668500
     24 Br1         22.4380    16.3150    10.3230 br         1 TWB      -0.063100
     25 H           19.4690    16.0640     5.0270 hn         1 TWB       0.320500
@<TRIPOS>BOND
     1     1     2 ar  
     2     1    10 ar  
     3     1    16 1   
     4     2     3 ar  
     5     3     8 ar  
     6     3    11 1   
     7     4     5 1   
     8     4    11 1   
     9     4    23 2   
    10     5     6 2   
    11     6     7 1   
    12     6     8 1   
    13     7    15 1   
    14     8     9 ar  
    15     9    10 ar  
    16     9    24 1   
    17    12    15 1   
    18    13    15 1   
    19    14    15 1   
    20     2    17 1   
    21     5    18 1   
    22     7    19 1   
    23     7    20 1   
    24    10    22 1   
    25    11    25 1   
    26    14    21 1   
@<TRIPOS>SUBSTRUCTURE
     1 TWB         1 TEMP              0 ****  ****    0 ROOT
