@<TRIPOS>MOLECULE
TWB
   27    28     1     0     0
SMALL
bcc


@<TRIPOS>ATOM
      1 C02         21.5580    13.9840     6.4350 ca         1 TWB      -0.048300
      2 C03         20.7190    14.7740     5.6900 ca         1 TWB      -0.175000
      3 C04         20.1370    15.9160     6.2360 ca         1 TWB       0.147100
      4 C06         18.6630    17.6920     6.0630 c          1 TWB       0.735800
      5 C08         18.9360    18.1340     7.3960 cc         1 TWB      -0.320200
      6 C09         19.8010    17.4420     8.1550 cd         1 TWB       0.152600
      7 C10         20.0970    17.9960     9.5320 c3         1 TWB      -0.306400
      8 C15         20.4220    16.2560     7.5610 ca         1 TWB      -0.147800
      9 C           21.2770    15.4480     8.3080 ca         1 TWB      -0.059000
     10 C17         21.8350    14.3340     7.7470 ca         1 TWB      -0.173000
     11 O           19.2850    16.6460     5.4610 os         1 TWB      -0.343200
     12 O12         19.3140    17.9490    12.1310 o          1 TWB      -0.856000
     13 O13         19.5610    15.7060    10.9320 o          1 TWB      -0.856000
     14 O14         17.6230    17.2520    10.3870 oh         1 TWB      -0.791400
     15 P11         19.1570    17.1540    10.8590 p5         1 TWB       1.337600
     16 C1          22.1900    12.7090     5.8960 c3         1 TWB      -0.050800
     17 H1          20.5130    14.5190     4.7440 ha         1 TWB       0.140000
     18 O2          17.8000    18.3650     5.5110 o          1 TWB      -0.623500
     19 H3          18.4750    18.9390     7.7470 ha         1 TWB       0.161000
     20 H4          21.2740    17.9800     9.7630 hc         1 TWB       0.089700
     21 H5          19.7260    19.1350     9.5950 hc         1 TWB       0.089700
     22 H2          21.4780    15.6770     9.2630 ha         1 TWB       0.219000
     23 H11         17.1960    18.0720    10.7750 ho         1 TWB       0.432000
     24 H           22.4430    13.7560     8.2910 ha         1 TWB       0.132000
     25 H6          23.3820    12.7480     6.0460 hc         1 TWB       0.038033
     26 H7          21.9630    12.5400     4.7290 hc         1 TWB       0.038033
     27 H8          21.7520    11.7670     6.5000 hc         1 TWB       0.038033
@<TRIPOS>BOND
     1     1     2 ar  
     2     1    10 ar  
     3     1    16 1   
     4     2     3 ar  
     5     3     8 ar  
     6     3    11 1   
     7     4     5 1   
     8     4    11 1   
     9     4    18 2   
    10     5     6 2   
    11     6     7 1   
    12     6     8 1   
    13     7    15 1   
    14     8     9 ar  
    15     9    10 ar  
    16    12    15 1   
    17    13    15 1   
    18    14    15 1   
    19     2    17 1   
    20     5    19 1   
    21     7    20 1   
    22     7    21 1   
    23     9    22 1   
    24    10    24 1   
    25    14    23 1   
    26    16    25 1   
    27    16    26 1   
    28    16    27 1   
@<TRIPOS>SUBSTRUCTURE
     1 TWB         1 TEMP              0 ****  ****    0 ROOT
