# Molecule written by the XED library from Cresset
@<TRIPOS>MOLECULE
A TWB 301
    27     28      1
SMALL
USER_CHARGES
@<TRIPOS>ATOM
      1  C02        21.5580   13.9842    6.4346 C.ar      1 TWB1       -0.0524
      2  C03        20.7191   14.7738    5.6903 C.ar      1 TWB1       -0.0784
      3  C04        20.1367   15.9164    6.2359 C.ar      1 TWB1        0.0958
      4  C06        18.6626   17.6915    6.0627 C.2       1 TWB1        0.2720
      5  C08        18.9360   18.1336    7.3960 C.2       1 TWB1       -0.0511
      6  C09        19.8011   17.4423    8.1548 C.2       1 TWB1        0.0159
      7  C10        20.0966   17.9961    9.5317 C.3       1 TWB1       -0.0012
      8  C15        20.4215   16.2563    7.5615 C.ar      1 TWB1       -0.0096
      9  C          21.2770   15.4481    8.3076 C.ar      1 TWB1       -0.0690
     10  C17        21.8348   14.3337    7.7465 C.ar      1 TWB1       -0.0989
     11  O          19.2854   16.6460    5.4606 O.3       1 TWB1       -0.0996
     12  O12        19.3142   17.9489   12.1311 O.2       1 TWB1       -0.3354
     13  O13        19.5611   15.7058   10.9324 O.2       1 TWB1       -0.3354
     14  O14        17.6227   17.2515   10.3873 O.2       1 TWB1       -0.5166
     15  P11        19.1565   17.1541   10.8586 P.3       1 TWB1        0.6748
     16  C1         22.1902   12.7092    5.8961 C.3       1 TWB1       -0.0802
     17  H1         20.5132   14.5188    4.7443 H         1 TWB1        0.0926
     18  O2         17.8001   18.3646    5.5115 O.2       1 TWB1       -0.4018
     19  H3         18.4753   18.9391    7.7474 H         1 TWB1        0.0947
     20  H4         21.2741   17.9805    9.7634 H         1 TWB1        0.0540
     21  H5         19.7257   19.1346    9.5955 H         1 TWB1        0.0540
     22  H2         21.4781   15.6767    9.2634 H         1 TWB1        0.0910
     23  H11        17.1961   18.0722   10.7753 H         1 TWB1        0.3295
     24  H          22.4431   13.7560    8.2907 H         1 TWB1        0.0908
     25  H6         23.3823   12.7481    6.0465 H         1 TWB1        0.0465
     26  H7         21.9633   12.5395    4.7294 H         1 TWB1        0.0465
     27  H8         21.7523   11.7667    6.4996 H         1 TWB1        0.0465
@<TRIPOS>BOND
     1      1      2 ar
     2      1     10 ar
     3      1     16 1 
     4      2      3 ar
     5      3      8 ar
     6      3     11 1 
     7      4      5 1 
     8      4     11 1 
     9      4     18 2 
    10      5      6 2 
    11      6      7 1 
    12      6      8 1 
    13      7     15 1 
    14      8      9 ar
    15      9     10 ar
    16     12     15 1 
    17     13     15 1 
    18     14     15 1 
    19      2     17 1 
    20      5     19 1 
    21      7     20 1 
    22      7     21 1 
    23      9     22 1 
    24     10     24 1 
    25     14     23 1 
    26     16     25 1 
    27     16     26 1 
    28     16     27 1 
@<TRIPOS>SUBSTRUCTURE
     1 TWB1         1 MOLECULE 1 A  TWB 
