@<TRIPOS>MOLECULE
TWB
   31    32     1     0     0
SMALL
bcc


@<TRIPOS>ATOM
      1 C02         21.4640    14.0850     6.2260 ca         1 TWB      -0.022300
      2 C03         20.5320    14.8510     5.5760 ca         1 TWB      -0.192000
      3 C04         20.0030    15.9870     6.1660 ca         1 TWB       0.171100
      4 C06         18.5320    17.7660     6.0460 c          1 TWB       0.739800
      5 C08         18.8500    18.1920     7.3680 cc         1 TWB      -0.327200
      6 C09         19.7550    17.5070     8.0910 cd         1 TWB       0.169600
      7 C10         19.9940    18.1060     9.4660 c3         1 TWB      -0.310400
      8 C15         20.3960    16.3430     7.4620 ca         1 TWB      -0.149800
      9 C           21.3700    15.5700     8.1170 ca         1 TWB       0.209100
     10 C17         21.8880    14.4590     7.4860 ca         1 TWB      -0.227000
     11 O           19.0920    16.6930     5.4400 os         1 TWB      -0.343200
     12 O12         19.3450    17.9830    12.0900 o          1 TWB      -0.861000
     13 O13         19.6580    15.7560    10.8790 o          1 TWB      -0.861000
     14 O14         17.6170    17.1890    10.4170 oh         1 TWB      -0.793400
     15 P11         19.1720    17.1820    10.8230 p5         1 TWB       1.338600
     16 C1          22.0190    12.8200     5.5930 c3         1 TWB      -0.051800
     17 H1          20.2190    14.5870     4.6620 ha         1 TWB       0.145000
     18 O2          17.6930    18.4710     5.5030 o          1 TWB      -0.622500
     19 H3          18.3900    18.9830     7.7400 ha         1 TWB       0.163000
     20 H4          21.1660    18.2470     9.6850 hc         1 TWB       0.098200
     21 H5          19.4940    19.1920     9.5530 hc         1 TWB       0.098200
     22 O1          21.7530    15.9180     9.3500 os         1 TWB      -0.343900
     23 H11         17.1800    18.0280    10.7500 ho         1 TWB       0.430000
     24 H           22.5750    13.9010     7.9500 ha         1 TWB       0.136000
     25 H2          23.1740    12.6750     5.8860 hc         1 TWB       0.040367
     26 H6          21.9310    12.8420     4.3960 hc         1 TWB       0.040367
     27 H7          21.4010    11.8770     6.0050 hc         1 TWB       0.040367
     28 C2          23.0910    15.6440     9.8000 c3         1 TWB       0.121700
     29 H8          23.8680    16.1440     9.0340 h1         1 TWB       0.054700
     30 H9          23.2080    16.1670    10.8730 h1         1 TWB       0.054700
     31 H10         23.2810    14.4690     9.9430 h1         1 TWB       0.054700
@<TRIPOS>BOND
     1     1     2 ar  
     2     1    10 ar  
     3     1    16 1   
     4     2     3 ar  
     5     3     8 ar  
     6     3    11 1   
     7     4     5 1   
     8     4    11 1   
     9     4    18 2   
    10     5     6 2   
    11     6     7 1   
    12     6     8 1   
    13     7    15 1   
    14     8     9 ar  
    15     9    10 ar  
    16     9    22 1   
    17    12    15 1   
    18    13    15 1   
    19    14    15 1   
    20    22    28 1   
    21     2    17 1   
    22     5    19 1   
    23     7    20 1   
    24     7    21 1   
    25    10    24 1   
    26    14    23 1   
    27    16    25 1   
    28    16    26 1   
    29    16    27 1   
    30    28    29 1   
    31    28    30 1   
    32    28    31 1   
@<TRIPOS>SUBSTRUCTURE
     1 TWB         1 TEMP              0 ****  ****    0 ROOT
