# Molecule written by the XED library from Cresset
@<TRIPOS>MOLECULE
ligand_11
    25     26      1
SMALL
USER_CHARGES
@<TRIPOS>ATOM
      1  C02        21.5869   14.1171    6.2970 C.ar      1 TWB1       -0.0761
      2  C03        20.6579   14.8610    5.6250 C.ar      1 TWB1       -0.1032
      3  C04        20.0780   15.9680    6.2340 C.ar      1 TWB1        0.1026
      4  C06        18.5220   17.7940    6.0830 C.2       1 TWB1        0.2759
      5  C08        18.8639   18.1869    7.4170 C.2       1 TWB1       -0.0579
      6  C09        19.7680   17.4830    8.1360 C.2       1 TWB1        0.0092
      7  C10        20.0850   18.0300    9.5091 C.3       1 TWB1       -0.0014
      8  C15        20.4221   16.3110    7.5391 C.ar      1 TWB1       -0.0218
      9  C          21.3649   15.5340    8.2150 C.ar      1 TWB1       -0.0732
     10  C17        21.9430   14.4590    7.5970 C.ar      1 TWB1       -0.1131
     11  N          19.1440   16.7291    5.5540 N.am      1 TWB1       -0.1995
     12  O12        19.3270   17.9689   12.1090 O.2       1 TWB1       -0.3354
     13  O13        19.6349   15.7330   10.9060 O.2       1 TWB1       -0.5166
     14  O14        17.6340   17.2140   10.3951 O.2       1 TWB1       -0.3354
     15  P11        19.1780   17.1659   10.8410 P.3       1 TWB1        0.6747
     16  O2         17.6749   18.4620    5.5051 O.2       1 TWB1       -0.4552
     17  H          22.0081   13.3250    5.8510 H         1 TWB1        0.0906
     18  H1         20.3950   14.6130    4.6920 H         1 TWB1        0.0919
     19  H3         18.4191   18.9820    7.8080 H         1 TWB1        0.0942
     20  H4         21.2669   18.0100    9.7140 H         1 TWB1        0.0540
     21  H5         19.7240   19.1700    9.5919 H         1 TWB1        0.0540
     22  H2         21.6179   15.7620    9.1560 H         1 TWB1        0.0910
     23  H6         22.6250   13.9120    8.0850 H         1 TWB1        0.0906
     24  H7         18.9330   16.5000    4.7321 H         1 TWB1        0.2056
     25  H8         20.5731   15.6696   11.2634 H         1 TWB1        0.3295
@<TRIPOS>BOND
     1      2      1 ar
     2      3      2 ar
     3      5      4 1 
     4      6      5 2 
     5      7      6 1 
     6      8      3 ar
     7      8      6 1 
     8      9      8 ar
     9     10      1 ar
    10     10      9 ar
    11     11      3 1 
    12     11      4 am
    13     15      7 1 
    14     15     12 1 
    15     15     13 1 
    16     15     14 1 
    17     16      4 2 
    18     13     25 1 
    19     17      1 1 
    20     18      2 1 
    21     19      5 1 
    22     20      7 1 
    23     21      7 1 
    24     22      9 1 
    25     23     10 1 
    26     24     11 1 
@<TRIPOS>SUBSTRUCTURE
     1 TWB1         1 MOLECULE 1 *  TWB 
