# Molecule written by the XED library from Cresset
@<TRIPOS>MOLECULE
A TWB 301
    30     31      1
SMALL
USER_CHARGES
@<TRIPOS>ATOM
      1  C          22.1995   12.5443    6.0218 C.3       1 TWB1       -0.0802
      2  C02        21.5154   13.8034    6.5151 C.ar      1 TWB1       -0.0479
      3  C03        20.6474   14.5177    5.7308 C.ar      1 TWB1       -0.0932
      4  C04        20.0708   15.6914    6.1856 C.ar      1 TWB1        0.0959
      5  C06        18.6743   17.4870    5.7557 C.2       1 TWB1        0.2674
      6  C08        18.9208   18.0422    7.0516 C.2       1 TWB1       -0.0591
      7  C09        19.7314   17.4015    7.9205 C.2       1 TWB1        0.0198
      8  C10        19.8946   18.0923    9.2661 C.3       1 TWB1        0.0004
      9  C15        20.3829   16.1631    7.4692 C.ar      1 TWB1        0.0002
     10  C16        21.2967   15.4343    8.2567 C.ar      1 TWB1        0.0868
     11  C17        21.8191   14.2532    7.7798 C.ar      1 TWB1       -0.0924
     12  H          22.4482   13.7210    8.3451 H         1 TWB1        0.0926
     13  O05        19.2112   16.3209    5.3331 O.3       1 TWB1       -0.1000
     14  O07        17.9239   18.1299    5.0273 O.2       1 TWB1       -0.4057
     15  O12        19.2547   18.1647   11.8433 O.2       1 TWB1       -0.3465
     16  O13        19.6228   15.8917   10.8316 O.2       1 TWB1       -0.3465
     17  O14        17.5582   17.2022   10.2600 O.2       1 TWB1       -0.3465
     18  P11        19.0145   17.2641   10.6544 P.3       1 TWB1        0.7293
     19 H102        21.0536   18.2217    9.5456 H         1 TWB1        0.0542
     20 H103        19.4094   19.1882    9.2612 H         1 TWB1        0.0542
     21  H03        20.4304   14.1921    4.8104 H         1 TWB1        0.0926
     22  H08        18.4783   18.8933    7.2995 H         1 TWB1        0.0947
     23  O          21.6668   15.9029    9.4508 O.3       1 TWB1       -0.1982
     24  H1         23.3845   12.6914    6.1578 H         1 TWB1        0.0465
     25  H2         21.9670   12.3952    4.8550 H         1 TWB1        0.0465
     26  H3         21.8548   11.5713    6.6360 H         1 TWB1        0.0465
     27  C1         22.9649   15.5710    9.9803 C.3       1 TWB1       -0.0471
     28  H4         23.0361   14.4229   10.3191 H         1 TWB1        0.0618
     29  H5         23.1560   16.2496   10.9515 H         1 TWB1        0.0618
     30  H6         23.7906   15.8430    9.1542 H         1 TWB1        0.0618
@<TRIPOS>BOND
     1      1      2 1 
     2      2      3 ar
     3      2     11 ar
     4      3      4 ar
     5      4      9 ar
     6      4     13 1 
     7      5      6 1 
     8      5     13 1 
     9      5     14 2 
    10      6      7 2 
    11      7      8 1 
    12      7      9 1 
    13      8     18 1 
    14      9     10 ar
    15     10     11 ar
    16     10     23 1 
    17     15     18 1 
    18     16     18 1 
    19     17     18 2 
    20     23     27 1 
    21      1     24 1 
    22      1     25 1 
    23      1     26 1 
    24      3     21 1 
    25      6     22 1 
    26      8     19 1 
    27      8     20 1 
    28     11     12 1 
    29     27     28 1 
    30     27     29 1 
    31     27     30 1 
@<TRIPOS>SUBSTRUCTURE
     1 TWB1         1 MOLECULE 1 A  TWB 
