# Molecule written by the XED library from Cresset
@<TRIPOS>MOLECULE
A TWB 301
    26     28      1
SMALL
USER_CHARGES
@<TRIPOS>ATOM
      1  O          22.5445   13.2536    6.3568 O.3       1 TWB1       -0.1733
      2  C02        21.7508   14.2691    6.6464 C.ar      1 TWB1        0.0865
      3  C03        20.9140   14.9432    5.8029 C.ar      1 TWB1       -0.0708
      4  C04        20.2238   16.0326    6.3158 C.ar      1 TWB1        0.0850
      5  C06        18.7855   17.8016    5.9348 C.2       1 TWB1        0.2670
      6  C08        18.8842   18.2489    7.2897 C.2       1 TWB1       -0.0585
      7  C09        19.6518   17.5654    8.1612 C.2       1 TWB1        0.0156
      8  C10        19.7934   18.1004    9.5682 C.3       1 TWB1        0.0003
      9  C15        20.3729   16.3954    7.6644 C.ar      1 TWB1       -0.0186
     10  C16        21.2204   15.6637    8.5095 C.ar      1 TWB1       -0.0625
     11  C17        21.9017   14.6187    7.9601 C.ar      1 TWB1        0.0637
     12  O1         22.7999   13.8272    8.5339 O.3       1 TWB1       -0.1780
     13  O05        19.4299   16.7147    5.4489 O.3       1 TWB1       -0.1011
     14  O07        18.0611   18.4868    5.2226 O.2       1 TWB1       -0.4056
     15  O12        19.2187   17.7706   12.1261 O.2       1 TWB1       -0.3465
     16  O13        19.3735   15.6966   10.7100 O.2       1 TWB1       -0.3465
     17  O14        17.4077   17.2467   10.4602 O.2       1 TWB1       -0.3465
     18  P11        18.8733   17.1185   10.8096 P.3       1 TWB1        0.7293
     19 H102        20.9537   18.1583    9.8689 H         1 TWB1        0.0542
     20 H103        19.3361   19.2069    9.6431 H         1 TWB1        0.0542
     21  H03        20.8167   14.6752    4.8451 H         1 TWB1        0.0942
     22  H08        18.3907   19.0588    7.5717 H         1 TWB1        0.0947
     23  H16        21.3310   15.9062    9.4747 H         1 TWB1        0.0928
     24  C          23.3779   12.9603    7.5143 C.3       1 TWB1        0.0592
     25  H          24.5067   13.2996    7.2895 H         1 TWB1        0.0806
     26  H1         23.3142   11.8028    7.8011 H         1 TWB1        0.0806
@<TRIPOS>BOND
     1      1      2 1 
     2      1     24 1 
     3      2      3 ar
     4      2     11 ar
     5      3      4 ar
     6      4      9 ar
     7      4     13 1 
     8      5      6 1 
     9      5     13 1 
    10      5     14 2 
    11      6      7 2 
    12      7      8 1 
    13      7      9 1 
    14      8     18 1 
    15      9     10 ar
    16     10     11 ar
    17     11     12 1 
    18     15     18 1 
    19     16     18 1 
    20     17     18 2 
    21     24     12 1 
    22      3     21 1 
    23      6     22 1 
    24      8     19 1 
    25      8     20 1 
    26     10     23 1 
    27     24     25 1 
    28     24     26 1 
@<TRIPOS>SUBSTRUCTURE
     1 TWB1         1 MOLECULE 1 A  TWB 
