# Molecule written by the XED library from Cresset
@<TRIPOS>MOLECULE
A TWB 301
    24     25      1
SMALL
USER_CHARGES
@<TRIPOS>ATOM
      1  C02        21.6878   13.9184    6.5182 C.ar      1 TWB1        0.0492
      2  C03        20.8092   14.6272    5.7542 C.ar      1 TWB1       -0.0829
      3  C04        20.2296   15.7864    6.2531 C.ar      1 TWB1        0.1094
      4  C06        18.7388   17.6235    5.8338 C.2       1 TWB1        0.2730
      5  C08        18.9500   18.0795    7.1774 C.2       1 TWB1       -0.0636
      6  C09        19.7836   17.4222    8.0219 C.2       1 TWB1        0.0134
      7  C10        19.9272   18.0729    9.3841 C.3       1 TWB1        0.0002
      8  C15        20.5107   16.2338    7.5466 C.ar      1 TWB1       -0.0041
      9  C          21.4699   15.5164    8.2820 C.ar      1 TWB1        0.0593
     10  C17        22.0248   14.3740    7.7809 C.ar      1 TWB1       -0.0643
     11  N          19.3653   16.5072    5.4493 N.am      1 TWB1       -0.1996
     12  O12        19.2757   18.1200   11.9474 O.2       1 TWB1       -0.3465
     13  O13        19.1870   15.8801   10.7954 O.2       1 TWB1       -0.3465
     14  O14        17.4263   17.6114   10.3251 O.2       1 TWB1       -0.3465
     15  P11        18.8672   17.3552   10.7089 P.3       1 TWB1        0.7293
     16 BR          22.4562   12.3482    5.8437 Br        1 TWB1       -0.0864
     17  H1         20.5854   14.3078    4.8333 H         1 TWB1        0.0947
     18  O          17.9985   18.2639    5.0932 O.2       1 TWB1       -0.4577
     19  H3         18.4639   18.8876    7.4801 H         1 TWB1        0.0942
     20  H4         21.0775   18.0759    9.7223 H         1 TWB1        0.0542
     21  H5         19.5616   19.2142    9.3459 H         1 TWB1        0.0542
     22  H7         22.6929   13.8675    8.3264 H         1 TWB1        0.0962
     23 BR1         22.1159   16.0735    9.9562 Br        1 TWB1       -0.0846
     24  H          19.2146   16.2251    4.6291 H         1 TWB1        0.2056
@<TRIPOS>BOND
     1      1      2 ar
     2      1     10 ar
     3      1     16 1 
     4      2      3 ar
     5      3      8 ar
     6      3     11 1 
     7      4      5 1 
     8      4     11 am
     9      4     18 2 
    10      5      6 2 
    11      6      7 1 
    12      6      8 1 
    13      7     15 1 
    14      8      9 ar
    15      9     10 ar
    16      9     23 1 
    17     12     15 1 
    18     13     15 1 
    19     14     15 2 
    20      2     17 1 
    21      5     19 1 
    22      7     20 1 
    23      7     21 1 
    24     10     22 1 
    25     11     24 1 
@<TRIPOS>SUBSTRUCTURE
     1 TWB1         1 MOLECULE 1 A  TWB 
