# Molecule written by the XED library from Cresset
@<TRIPOS>MOLECULE
A TWB 301
    26     27      1
SMALL
USER_CHARGES
@<TRIPOS>ATOM
      1  C          22.2059   12.4834    6.0411 C.3       1 TWB1       -0.0802
      2  C02        21.6298   13.8038    6.5192 C.ar      1 TWB1       -0.0466
      3  C03        20.7223   14.4922    5.7598 C.ar      1 TWB1       -0.0908
      4  C04        20.1632   15.6770    6.2138 C.ar      1 TWB1        0.0979
      5  C06        18.7374   17.4545    5.8397 C.2       1 TWB1        0.2682
      6  C08        18.9741   17.9915    7.1454 C.2       1 TWB1       -0.0579
      7  C09        19.8194   17.3657    7.9876 C.2       1 TWB1        0.0206
      8  C10        19.9949   18.0362    9.3428 C.3       1 TWB1        0.0004
      9  C15        20.4987   16.1667    7.4807 C.ar      1 TWB1        0.0100
     10  C16        21.4669   15.4820    8.2185 C.ar      1 TWB1        0.1359
     11  C17        22.0173   14.3181    7.7445 C.ar      1 TWB1       -0.0792
     12  H          22.7004   13.8310    8.2892 H         1 TWB1        0.0933
     13  O05        19.2836   16.3035    5.3850 O.3       1 TWB1       -0.0998
     14  O07        17.9721   18.1132    5.1451 O.2       1 TWB1       -0.4051
     15  O12        19.2951   18.1123   11.9376 O.2       1 TWB1       -0.3465
     16  O13        19.4273   15.8546   10.8294 O.2       1 TWB1       -0.3465
     17  O14        17.5400   17.4262   10.2883 O.2       1 TWB1       -0.3465
     18  P11        18.9893   17.2953   10.7022 P.3       1 TWB1        0.7293
     19 H102        21.1490   18.1230    9.6558 H         1 TWB1        0.0542
     20 H103        19.5664   19.1548    9.2899 H         1 TWB1        0.0542
     21  H03        20.4503   14.1332    4.8668 H         1 TWB1        0.0926
     22  H08        18.4994   18.8160    7.4191 H         1 TWB1        0.0947
     23  F          21.8736   15.9639    9.3990 F         1 TWB1       -0.1418
     24  H1         23.4039   12.5360    6.0401 H         1 TWB1        0.0465
     25  H2         21.8281   12.2036    4.9367 H         1 TWB1        0.0465
     26  H3         21.8572   11.6092    6.7856 H         1 TWB1        0.0465
@<TRIPOS>BOND
     1      1      2 1 
     2      2      3 ar
     3      2     11 ar
     4      3      4 ar
     5      4      9 ar
     6      4     13 1 
     7      5      6 1 
     8      5     13 1 
     9      5     14 2 
    10      6      7 2 
    11      7      8 1 
    12      7      9 1 
    13      8     18 1 
    14      9     10 ar
    15     10     11 ar
    16     10     23 1 
    17     15     18 1 
    18     16     18 1 
    19     17     18 2 
    20      1     24 1 
    21      1     25 1 
    22      1     26 1 
    23      3     21 1 
    24      6     22 1 
    25      8     19 1 
    26      8     20 1 
    27     11     12 1 
@<TRIPOS>SUBSTRUCTURE
     1 TWB1         1 MOLECULE 1 A  TWB 
