# Molecule written by the XED library from Cresset
@<TRIPOS>MOLECULE
A TWB 301
    29     30      1
SMALL
USER_CHARGES
@<TRIPOS>ATOM
      1  C01        22.1276   12.8058    5.7460 C.3       1 TWB1       -0.0798
      2  C02        21.5232   14.0063    6.4579 C.ar      1 TWB1       -0.0492
      3  C03        20.7591   14.8610    5.7081 C.ar      1 TWB1       -0.0780
      4  C04        20.1664   15.9804    6.2650 C.ar      1 TWB1        0.0959
      5  C06        18.8597   17.8697    6.0023 C.2       1 TWB1        0.2720
      6  C08        18.9951   18.2153    7.3849 C.2       1 TWB1       -0.0511
      7  C09        19.7188   17.4249    8.1992 C.2       1 TWB1        0.0161
      8  C10        19.8898   17.8959    9.6273 C.3       1 TWB1        0.0003
      9  C15        20.3520   16.2388    7.6212 C.ar      1 TWB1       -0.0092
     10  C16        21.1205   15.3581    8.3833 C.ar      1 TWB1       -0.0656
     11  C17        21.7049   14.2564    7.8155 C.ar      1 TWB1       -0.0761
     12  C18        22.5094   13.3181    8.7039 C.3       1 TWB1       -0.0798
     13  O05        19.4102   16.7645    5.4478 O.3       1 TWB1       -0.0996
     14  O07        18.2020   18.6671    5.3424 O.2       1 TWB1       -0.4018
     15  O12        19.2235   17.6195   12.1699 O.2       1 TWB1       -0.3465
     16  O13        19.3015   15.5371   10.7624 O.2       1 TWB1       -0.3465
     17  O14        17.4232   17.1782   10.4768 O.2       1 TWB1       -0.3465
     18  P11        18.8749   16.9804   10.8482 P.3       1 TWB1        0.7293
     19 H011        21.6700   12.6796    4.6432 H         1 TWB1        0.0465
     20 H181        21.7999   12.4062    9.0255 H         1 TWB1        0.0465
     21 H012        23.3152   12.9519    5.6504 H         1 TWB1        0.0465
     22 H013        21.8905   11.8069    6.3656 H         1 TWB1        0.0465
     23 H102        21.0438   17.8503    9.9533 H         1 TWB1        0.0542
     24 H103        19.5206   19.0318    9.7351 H         1 TWB1        0.0542
     25 H182        23.4590   12.8798    8.1163 H         1 TWB1        0.0465
     26 H183        22.9047   13.8646    9.6966 H         1 TWB1        0.0465
     27  H03        20.6182   14.6755    4.7362 H         1 TWB1        0.0926
     28  H08        18.5596   19.0396    7.7261 H         1 TWB1        0.0947
     29  H16        21.2369   15.5276    9.3625 H         1 TWB1        0.0912
@<TRIPOS>BOND
     1      1      2 1 
     2      2      3 ar
     3      2     11 ar
     4      3      4 ar
     5      4      9 ar
     6      4     13 1 
     7      5      6 1 
     8      5     13 1 
     9      5     14 2 
    10      6      7 2 
    11      7      8 1 
    12      7      9 1 
    13      8     18 1 
    14      9     10 ar
    15     10     11 ar
    16     11     12 1 
    17     15     18 1 
    18     16     18 1 
    19     17     18 2 
    20      1     19 1 
    21      1     21 1 
    22      1     22 1 
    23      3     27 1 
    24      6     28 1 
    25      8     23 1 
    26      8     24 1 
    27     10     29 1 
    28     12     20 1 
    29     12     25 1 
    30     12     26 1 
@<TRIPOS>SUBSTRUCTURE
     1 TWB1         1 MOLECULE 1 A  TWB 
