# Molecule written by the XED library from Cresset
@<TRIPOS>MOLECULE
A TWB 301
    26     27      1
SMALL
USER_CHARGES
@<TRIPOS>ATOM
      1  H          22.0918   13.3144    5.9886 H         1 TWB1        0.0908
      2  C02        21.6377   14.0937    6.4216 C.ar      1 TWB1       -0.0712
      3  C03        20.8540   14.9277    5.6729 C.ar      1 TWB1       -0.0816
      4  C04        20.2183   16.0124    6.2547 C.ar      1 TWB1        0.0953
      5  C06        18.8536   17.8634    6.0147 C.2       1 TWB1        0.2720
      6  C08        18.9785   18.1987    7.4006 C.2       1 TWB1       -0.0511
      7  C09        19.7246   17.4240    8.2101 C.2       1 TWB1        0.0161
      8  C10        19.8894   17.8922    9.6383 C.3       1 TWB1        0.0003
      9  C15        20.3893   16.2595    7.6177 C.ar      1 TWB1       -0.0092
     10  C16        21.1791   15.3887    8.3700 C.ar      1 TWB1       -0.0660
     11  C17        21.7959   14.3182    7.7789 C.ar      1 TWB1       -0.0798
     12  C18        22.6410   13.3451    8.5798 C.3       1 TWB1       -0.0802
     13  O05        19.4416   16.7847    5.4477 O.3       1 TWB1       -0.0997
     14  O07        18.1732   18.6396    5.3539 O.2       1 TWB1       -0.4018
     15  O12        19.2104   17.5910   12.1748 O.2       1 TWB1       -0.3465
     16  O13        19.2959   15.5275   10.7370 O.2       1 TWB1       -0.3465
     17  O14        17.4167   17.1703   10.4714 O.2       1 TWB1       -0.3465
     18  P11        18.8673   16.9680   10.8441 P.3       1 TWB1        0.7293
     19 H181        22.0382   12.3124    8.6869 H         1 TWB1        0.0465
     20 H102        21.0447   17.8489    9.9587 H         1 TWB1        0.0542
     21 H103        19.5247   19.0290    9.7463 H         1 TWB1        0.0542
     22 H182        23.6740   13.1309    8.0072 H         1 TWB1        0.0465
     23 H183        22.8854   13.7712    9.6746 H         1 TWB1        0.0465
     24  H03        20.7357   14.7556    4.6939 H         1 TWB1        0.0924
     25  H08        18.5163   19.0038    7.7494 H         1 TWB1        0.0947
     26  H16        21.2907   15.5427    9.3517 H         1 TWB1        0.0912
@<TRIPOS>BOND
     1      2      3 ar
     2      2     11 ar
     3      3      4 ar
     4      4      9 ar
     5      4     13 1 
     6      5      6 1 
     7      5     13 1 
     8      5     14 2 
     9      6      7 2 
    10      7      8 1 
    11      7      9 1 
    12      8     18 1 
    13      9     10 ar
    14     10     11 ar
    15     11     12 1 
    16     15     18 1 
    17     16     18 1 
    18     17     18 2 
    19      3     24 1 
    20      6     25 1 
    21      8     20 1 
    22      8     21 1 
    23     10     26 1 
    24     12     19 1 
    25     12     22 1 
    26     12     23 1 
    27      1      2 1 
@<TRIPOS>SUBSTRUCTURE
     1 TWB1         1 MOLECULE 1 A  TWB 
