@<TRIPOS>MOLECULE
TWB
   27    28     1     0     0
SMALL
bcc


@<TRIPOS>ATOM
      1 C02         21.4350    14.0610     6.1590 ca         1 TWB      -0.049300
      2 C03         20.5010    14.8400     5.5310 ca         1 TWB      -0.152000
      3 C04         19.9930    15.9750     6.1420 ca         1 TWB       0.153100
      4 C06         18.5230    17.7580     6.0440 c          1 TWB       0.737800
      5 C08         18.8400    18.1620     7.3770 cc         1 TWB      -0.317200
      6 C09         19.7530    17.4690     8.0840 cd         1 TWB       0.156600
      7 C10         20.0080    18.0330     9.4670 c3         1 TWB      -0.310400
      8 C15         20.4070    16.3260     7.4320 ca         1 TWB      -0.077800
      9 C           21.4150    15.5540     8.0260 ca         1 TWB       0.056100
     10 C17         21.8970    14.4400     7.4040 ca         1 TWB      -0.153000
     11 O           19.0840    16.6920     5.4270 os         1 TWB      -0.343200
     12 O12         19.2950    18.0060    12.0750 o          1 TWB      -0.848500
     13 O13         19.5390    15.7400    10.9270 o          1 TWB      -0.848500
     14 O14         17.5510    17.2230    10.4190 oh         1 TWB      -0.797400
     15 P11         19.1060    17.1800    10.8270 p5         1 TWB       1.327600
     16 C1          21.9790    12.8030     5.5120 c3         1 TWB      -0.050800
     17 H1          20.1740    14.5880     4.6190 ha         1 TWB       0.148000
     18 O2          17.6830    18.4660     5.5020 o          1 TWB      -0.615500
     19 H3          18.3740    18.9430     7.7670 ha         1 TWB       0.172000
     20 H4          21.1840    18.0590     9.6920 hc         1 TWB       0.094200
     21 H5          19.6080    19.1620     9.5450 hc         1 TWB       0.094200
     22 Br          22.2130    15.9810     9.6740 br         1 TWB      -0.068100
     23 H11         17.1350    18.0750    10.7440 ho         1 TWB       0.426000
     24 H           22.6020    13.8960     7.8630 ha         1 TWB       0.140000
     25 H2          23.1750    12.8730     5.4290 hc         1 TWB       0.042033
     26 H6          21.5140    12.6680     4.4130 hc         1 TWB       0.042033
     27 H7          21.6840    11.8490     6.1810 hc         1 TWB       0.042033
@<TRIPOS>BOND
     1     1     2 ar  
     2     1    10 ar  
     3     1    16 1   
     4     2     3 ar  
     5     3     8 ar  
     6     3    11 1   
     7     4     5 1   
     8     4    11 1   
     9     4    18 2   
    10     5     6 2   
    11     6     7 1   
    12     6     8 1   
    13     7    15 1   
    14     8     9 ar  
    15     9    10 ar  
    16     9    22 1   
    17    12    15 1   
    18    13    15 1   
    19    14    15 1   
    20     2    17 1   
    21     5    19 1   
    22     7    20 1   
    23     7    21 1   
    24    10    24 1   
    25    14    23 1   
    26    16    25 1   
    27    16    26 1   
    28    16    27 1   
@<TRIPOS>SUBSTRUCTURE
     1 TWB         1 TEMP              0 ****  ****    0 ROOT
