# Molecule written by the XED library from Cresset
@<TRIPOS>MOLECULE
A TWB 301
    27     28      1
SMALL
USER_CHARGES
@<TRIPOS>ATOM
      1  C02        21.4351   14.0608    6.1587 C.ar      1 TWB1       -0.0469
      2  C03        20.5013   14.8400    5.5309 C.ar      1 TWB1       -0.0836
      3  C04        19.9926   15.9749    6.1418 C.ar      1 TWB1        0.0989
      4  C06        18.5227   17.7577    6.0443 C.2       1 TWB1        0.2703
      5  C08        18.8404   18.1620    7.3768 C.2       1 TWB1       -0.0541
      6  C09        19.7529   17.4691    8.0837 C.2       1 TWB1        0.0196
      7  C10        20.0075   18.0334    9.4670 C.3       1 TWB1       -0.0010
      8  C15        20.4065   16.3256    7.4320 C.ar      1 TWB1        0.0096
      9  C          21.4146   15.5539    8.0259 C.ar      1 TWB1        0.0599
     10  C17        21.8972   14.4397    7.4045 C.ar      1 TWB1       -0.0755
     11  O          19.0835   16.6924    5.4269 O.3       1 TWB1       -0.0996
     12  O12        19.2952   18.0056   12.0754 O.2       1 TWB1       -0.3354
     13  O13        19.5390   15.7404   10.9266 O.2       1 TWB1       -0.3354
     14  O14        17.5512   17.2230   10.4191 O.2       1 TWB1       -0.5166
     15  P11        19.1061   17.1795   10.8267 P.3       1 TWB1        0.6749
     16  C1         21.9789   12.8027    5.5118 C.3       1 TWB1       -0.0802
     17  H1         20.1745   14.5876    4.6193 H         1 TWB1        0.0926
     18  O2         17.6830   18.4656    5.5019 O.2       1 TWB1       -0.4033
     19  H3         18.3741   18.9434    7.7669 H         1 TWB1        0.0947
     20  H4         21.1844   18.0588    9.6921 H         1 TWB1        0.0540
     21  H5         19.6076   19.1623    9.5453 H         1 TWB1        0.0540
     22 BR          22.2135   15.9806    9.6739 Br        1 TWB1       -0.0844
     23  H11        17.1347   18.0753   10.7440 H         1 TWB1        0.3295
     24  H          22.6017   13.8963    7.8629 H         1 TWB1        0.0936
     25  H2         23.1750   12.8726    5.4293 H         1 TWB1        0.0465
     26  H6         21.5144   12.6685    4.4132 H         1 TWB1        0.0465
     27  H7         21.6845   11.8487    6.1813 H         1 TWB1        0.0465
@<TRIPOS>BOND
     1      1      2 ar
     2      1     10 ar
     3      1     16 1 
     4      2      3 ar
     5      3      8 ar
     6      3     11 1 
     7      4      5 1 
     8      4     11 1 
     9      4     18 2 
    10      5      6 2 
    11      6      7 1 
    12      6      8 1 
    13      7     15 1 
    14      8      9 ar
    15      9     10 ar
    16      9     22 1 
    17     12     15 1 
    18     13     15 1 
    19     14     15 1 
    20      2     17 1 
    21      5     19 1 
    22      7     20 1 
    23      7     21 1 
    24     10     24 1 
    25     14     23 1 
    26     16     25 1 
    27     16     26 1 
    28     16     27 1 
@<TRIPOS>SUBSTRUCTURE
     1 TWB1         1 MOLECULE 1 A  TWB 
