# Molecule written by the XED library from Cresset
@<TRIPOS>MOLECULE
A TWB 301
    26     27      1
SMALL
USER_CHARGES
@<TRIPOS>ATOM
      1  C          22.1074   12.4478    5.9091 C.3       1 TWB1       -0.0802
      2  C02        21.5723   13.7768    6.4190 C.ar      1 TWB1       -0.0469
      3  C03        20.6581   14.4841    5.6878 C.ar      1 TWB1       -0.0836
      4  C04        20.1267   15.6711    6.1645 C.ar      1 TWB1        0.0989
      5  C06        18.7030   17.4518    5.7961 C.2       1 TWB1        0.2703
      6  C08        18.9152   17.9610    7.1186 C.2       1 TWB1       -0.0541
      7  C09        19.7704   17.3315    7.9510 C.2       1 TWB1        0.0198
      8  C10        19.9309   18.0009    9.3067 C.3       1 TWB1        0.0004
      9  C15        20.4786   16.1477    7.4332 C.ar      1 TWB1        0.0096
     10  C16        21.4795   15.4540    8.1259 C.ar      1 TWB1        0.0599
     11  C17        22.0026   14.2885    7.6320 C.ar      1 TWB1       -0.0755
     12  H          22.7022   13.8010    8.1560 H         1 TWB1        0.0936
     13  O05        19.2568   16.3073    5.3395 O.3       1 TWB1       -0.0996
     14  O07        17.9625   18.1171    5.0796 O.2       1 TWB1       -0.4033
     15  O12        19.2586   18.1518   11.8806 O.2       1 TWB1       -0.3465
     16  O13        19.3798   15.8510   10.8598 O.2       1 TWB1       -0.3465
     17  O14        17.4724   17.3865   10.2971 O.2       1 TWB1       -0.3465
     18  P11        18.9298   17.2834   10.6855 P.3       1 TWB1        0.7293
     19 H102        21.0879   18.0331    9.6181 H         1 TWB1        0.0542
     20 H103        19.5378   19.1321    9.2538 H         1 TWB1        0.0542
     21  H03        20.3607   14.1369    4.7973 H         1 TWB1        0.0926
     22  H08        18.4213   18.7719    7.4058 H         1 TWB1        0.0947
     23 BR          22.1859   16.0912    9.7490 Br        1 TWB1       -0.0844
     24  H1         23.3066   12.4771    5.8765 H         1 TWB1        0.0465
     25  H2         21.6923   12.1924    4.8114 H         1 TWB1        0.0465
     26  H3         21.7501   11.5773    6.6545 H         1 TWB1        0.0465
@<TRIPOS>BOND
     1      1      2 1 
     2      2      3 ar
     3      2     11 ar
     4      3      4 ar
     5      4      9 ar
     6      4     13 1 
     7      5      6 1 
     8      5     13 1 
     9      5     14 2 
    10      6      7 2 
    11      7      8 1 
    12      7      9 1 
    13      8     18 1 
    14      9     10 ar
    15     10     11 ar
    16     10     23 1 
    17     15     18 1 
    18     16     18 1 
    19     17     18 2 
    20      1     24 1 
    21      1     25 1 
    22      1     26 1 
    23      3     21 1 
    24      6     22 1 
    25      8     19 1 
    26      8     20 1 
    27     11     12 1 
@<TRIPOS>SUBSTRUCTURE
     1 TWB1         1 MOLECULE 1 A  TWB 
