# Molecule written by the XED library from Cresset
@<TRIPOS>MOLECULE
A TWB 301
    24     25      1
SMALL
USER_CHARGES
@<TRIPOS>ATOM
      1  C02        21.7425   13.9011    6.6097 C.ar      1 TWB1       -0.1074
      2  C03        20.8834   14.5699    5.7767 C.ar      1 TWB1       -0.1197
      3  C04        20.2636   15.7473    6.2145 C.ar      1 TWB1       -0.0178
      4  C06        18.7829   17.5852    5.8401 C.ar      1 TWB1       -0.1062
      5  C08        19.0139   18.0306    7.1462 C.ar      1 TWB1       -0.1026
      6  C09        19.8626   17.3729    7.9818 C.ar      1 TWB1       -0.0821
      7  C10        20.0473   17.9939    9.3695 C.3       1 TWB1       -0.0020
      8  C15        20.5084   16.2070    7.5204 C.ar      1 TWB1        0.0901
      9  N          21.3667   15.4931    8.3293 N.pl3     1 TWB1       -0.1063
     10  C17        21.9859   14.3772    7.8775 C.ar      1 TWB1        0.0177
     11  C          19.3933   16.4681    5.3755 C.ar      1 TWB1       -0.1190
     12  O12        19.3308   18.1011   11.9419 O.2       1 TWB1       -0.3465
     13  O13        19.3483   15.8424   10.8298 O.2       1 TWB1       -0.3465
     14  O14        17.5353   17.5091   10.2987 O.2       1 TWB1       -0.3465
     15  P11        18.9772   17.3030   10.7066 P.3       1 TWB1        0.7284
     16  H          22.1938   13.0641    6.2973 H         1 TWB1        0.0913
     17  H1         20.7015   14.2195    4.8577 H         1 TWB1        0.0910
     18  H2         18.1543   18.0931    5.2508 H         1 TWB1        0.0906
     19  H3         18.5436   18.8521    7.4678 H         1 TWB1        0.0908
     20  H4         21.1866   17.9057    9.7318 H         1 TWB1        0.0542
     21  H5         19.8009   19.1665    9.3248 H         1 TWB1        0.0542
     22  H6         21.5329   15.7885    9.2712 H         1 TWB1        0.1804
     23  H7         22.6203   13.8863    8.4752 H         1 TWB1        0.0979
     24  H8         19.2140   16.1500    4.4444 H         1 TWB1        0.0910
@<TRIPOS>BOND
     1      1      2 ar
     2      1     10 ar
     3      2      3 ar
     4      3      8 ar
     5      3     11 ar
     6      4      5 ar
     7      4     11 ar
     8      5      6 ar
     9      6      7 1 
    10      6      8 ar
    11      7     15 1 
    12      8      9 ar
    13      9     10 ar
    14     12     15 1 
    15     13     15 1 
    16     14     15 2 
    17      1     16 1 
    18      2     17 1 
    19      4     18 1 
    20      5     19 1 
    21      7     20 1 
    22      7     21 1 
    23      9     22 1 
    24     10     23 1 
    25     11     24 1 
@<TRIPOS>SUBSTRUCTURE
     1 TWB1         1 MOLECULE 1 A  TWB 
