# Molecule written by the XED library from Cresset
@<TRIPOS>MOLECULE
A TWB 301
    27     28      1
SMALL
USER_CHARGES
@<TRIPOS>ATOM
      1  O          22.4345   13.0607    6.2159 O.3       1 TWB1       -0.2003
      2  C02        21.7881   14.1489    6.6469 C.ar      1 TWB1        0.0753
      3  C03        20.9697   14.9112    5.8396 C.ar      1 TWB1       -0.0740
      4  C04        20.3061   16.0222    6.3283 C.ar      1 TWB1        0.0972
      5  C06        18.8485   17.7746    5.9536 C.2       1 TWB1        0.2676
      6  C08        18.9433   18.2176    7.3094 C.2       1 TWB1       -0.0585
      7  C09        19.7237   17.5448    8.1779 C.2       1 TWB1        0.0161
      8  C10        19.8534   18.0656    9.5943 C.3       1 TWB1        0.0003
      9  C15        20.4529   16.3844    7.6692 C.ar      1 TWB1       -0.0207
     10  C16        21.2913   15.6176    8.4805 C.ar      1 TWB1       -0.0645
     11  C17        21.9435   14.5293    7.9764 C.ar      1 TWB1       -0.0923
     12  H          22.5380   13.9913    8.5748 H         1 TWB1        0.0924
     13  O05        19.5232   16.7108    5.4560 O.3       1 TWB1       -0.0998
     14  O07        18.1022   18.4478    5.2520 O.2       1 TWB1       -0.4052
     15  O12        19.1951   17.7282   12.1529 O.2       1 TWB1       -0.3465
     16  O13        19.3669   15.6696   10.7203 O.2       1 TWB1       -0.3465
     17  O14        17.4341   17.2545   10.4220 O.2       1 TWB1       -0.3465
     18  P11        18.8853   17.0977   10.8161 P.3       1 TWB1        0.7293
     19 H102        21.0067   18.1086    9.9217 H         1 TWB1        0.0542
     20 H103        19.4049   19.1752    9.6734 H         1 TWB1        0.0542
     21  H03        20.8470   14.6631    4.8794 H         1 TWB1        0.0942
     22  H08        18.4332   19.0151    7.5974 H         1 TWB1        0.0947
     23  H16        21.4076   15.8617    9.4436 H         1 TWB1        0.0910
     24  C          22.1711   12.5578    4.8912 C.3       1 TWB1       -0.0471
     25  H1         20.9923   12.4108    4.7279 H         1 TWB1        0.0618
     26  H2         22.6220   13.3002    4.0605 H         1 TWB1        0.0618
     27  H3         22.7043   11.4878    4.7886 H         1 TWB1        0.0618
@<TRIPOS>BOND
     1      1      2 1 
     2      1     24 1 
     3      2      3 ar
     4      2     11 ar
     5      3      4 ar
     6      4      9 ar
     7      4     13 1 
     8      5      6 1 
     9      5     13 1 
    10      5     14 2 
    11      6      7 2 
    12      7      8 1 
    13      7      9 1 
    14      8     18 1 
    15      9     10 ar
    16     10     11 ar
    17     15     18 1 
    18     16     18 1 
    19     17     18 2 
    20      3     21 1 
    21      6     22 1 
    22      8     19 1 
    23      8     20 1 
    24     10     23 1 
    25     11     12 1 
    26     24     25 1 
    27     24     26 1 
    28     24     27 1 
@<TRIPOS>SUBSTRUCTURE
     1 TWB1         1 MOLECULE 1 A  TWB 
