# Molecule written by the XED library from Cresset
@<TRIPOS>MOLECULE
A TWB 301
    30     31      1
SMALL
USER_CHARGES
@<TRIPOS>ATOM
      1  C          22.3255   12.5578    6.0314 C.3       1 TWB1       -0.0802
      2  C02        21.7061   13.8434    6.5332 C.ar      1 TWB1       -0.0537
      3  C03        20.8200   14.5435    5.7739 C.ar      1 TWB1       -0.0993
      4  C04        20.2423   15.7070    6.2661 C.ar      1 TWB1        0.1036
      5  C06        18.7266   17.5226    5.8306 C.2       1 TWB1        0.2759
      6  C08        18.9509   18.0044    7.1631 C.2       1 TWB1       -0.0579
      7  C09        19.8032   17.3742    8.0106 C.2       1 TWB1        0.0098
      8  C10        19.9290   18.0753    9.3525 C.3       1 TWB1        0.0001
      9  C15        20.5307   16.1712    7.5551 C.ar      1 TWB1       -0.0184
     10  C16        21.4907   15.4577    8.2988 C.ar      1 TWB1       -0.0509
     11  C17        22.0445   14.3191    7.7862 C.ar      1 TWB1       -0.1053
     12  H1         22.7163   13.8137    8.3268 H         1 TWB1        0.0910
     13  N          19.3647   16.4084    5.4573 N.am      1 TWB1       -0.1995
     14  O07        17.9550   18.1294    5.0940 O.2       1 TWB1       -0.4552
     15  O12        19.3144   18.1263   11.9360 O.2       1 TWB1       -0.3465
     16  O13        19.3273   15.8649   10.8257 O.2       1 TWB1       -0.3465
     17  O14        17.4795   17.4958   10.3471 O.2       1 TWB1       -0.3465
     18  P11        18.9360   17.3212   10.7138 P.3       1 TWB1        0.7292
     19 H102        21.0796   18.2236    9.6558 H         1 TWB1        0.0542
     20 H103        19.4663   19.1804    9.2975 H         1 TWB1        0.0542
     21  H03        20.5824   14.2163    4.8604 H         1 TWB1        0.0921
     22  H08        18.4616   18.8137    7.4536 H         1 TWB1        0.0942
     23  C1         22.0831   15.7952    9.6604 C.3       1 TWB1       -0.0794
     24  H          19.2050   16.1076    4.6438 H         1 TWB1        0.2056
     25  H2         23.3748   12.3567    6.5789 H         1 TWB1        0.0465
     26  H3         22.5042   12.6380    4.8486 H         1 TWB1        0.0465
     27  H4         21.5693   11.6598    6.2739 H         1 TWB1        0.0465
     28  H5         22.9789   16.5741    9.4879 H         1 TWB1        0.0465
     29  H6         22.5651   14.8296   10.1867 H         1 TWB1        0.0465
     30  H7         21.3023   16.2275   10.4548 H         1 TWB1        0.0465
@<TRIPOS>BOND
     1      1      2 1 
     2      2      3 ar
     3      2     11 ar
     4      3      4 ar
     5      4      9 ar
     6      4     13 1 
     7      5      6 1 
     8      5     13 am
     9      5     14 2 
    10      6      7 2 
    11      7      8 1 
    12      7      9 1 
    13      8     18 1 
    14      9     10 ar
    15     10     11 ar
    16     10     23 1 
    17     15     18 1 
    18     16     18 1 
    19     17     18 2 
    20      1     25 1 
    21      1     26 1 
    22      1     27 1 
    23      3     21 1 
    24      6     22 1 
    25      8     19 1 
    26      8     20 1 
    27     11     12 1 
    28     13     24 1 
    29     23     28 1 
    30     23     29 1 
    31     23     30 1 
@<TRIPOS>SUBSTRUCTURE
     1 TWB1         1 MOLECULE 1 A  TWB 
