# Molecule written by the XED library from Cresset
@<TRIPOS>MOLECULE
A TWB 301
    24     25      1
SMALL
USER_CHARGES
@<TRIPOS>ATOM
      1  H          22.1355   13.0095    6.2059 H         1 TWB1        0.0906
      2  C02        21.7008   13.8404    6.5541 C.ar      1 TWB1       -0.0761
      3  C03        20.8059   14.5164    5.7752 C.ar      1 TWB1       -0.1032
      4  C04        20.2043   15.6732    6.2500 C.ar      1 TWB1        0.1026
      5  C06        18.7057   17.4978    5.8157 C.2       1 TWB1        0.2759
      6  C08        18.9564   18.0029    7.1362 C.2       1 TWB1       -0.0579
      7  C09        19.7926   17.3570    7.9847 C.2       1 TWB1        0.0094
      8  C10        20.0310   18.0014    9.3351 C.3       1 TWB1        0.0001
      9  C15        20.4795   16.1407    7.5321 C.ar      1 TWB1       -0.0218
     10  C16        21.3997   15.4322    8.3115 C.ar      1 TWB1       -0.0732
     11  C17        22.0072   14.3066    7.8254 C.ar      1 TWB1       -0.1131
     12  H1         22.6718   13.8140    8.3898 H         1 TWB1        0.0906
     13  N          19.3209   16.3681    5.4429 N.am      1 TWB1       -0.1995
     14  O07        17.9390   18.1187    5.0858 O.2       1 TWB1       -0.4552
     15  O12        19.3550   18.1056   11.9064 O.2       1 TWB1       -0.3465
     16  O13        19.4492   15.8326   10.8162 O.2       1 TWB1       -0.3465
     17  O14        17.5702   17.4191   10.2843 O.2       1 TWB1       -0.3465
     18  P11        19.0204   17.2763   10.6882 P.3       1 TWB1        0.7292
     19 H102        21.1946   17.9790    9.6240 H         1 TWB1        0.0542
     20 H103        19.6969   19.1526    9.3049 H         1 TWB1        0.0542
     21  H03        20.5824   14.1816    4.8594 H         1 TWB1        0.0919
     22  H08        18.4985   18.8358    7.4201 H         1 TWB1        0.0942
     23  H2         21.6173   15.7520    9.2341 H         1 TWB1        0.0910
     24  H3         19.1441   16.0566    4.6384 H         1 TWB1        0.2056
@<TRIPOS>BOND
     1      2      3 ar
     2      2     11 ar
     3      3      4 ar
     4      4      9 ar
     5      4     13 1 
     6      5      6 1 
     7      5     13 am
     8      5     14 2 
     9      6      7 2 
    10      7      8 1 
    11      7      9 1 
    12      8     18 1 
    13      9     10 ar
    14     10     11 ar
    15     15     18 1 
    16     16     18 1 
    17     17     18 2 
    18      3     21 1 
    19      6     22 1 
    20      8     19 1 
    21      8     20 1 
    22     10     23 1 
    23     11     12 1 
    24     13     24 1 
    25      1      2 1 
@<TRIPOS>SUBSTRUCTURE
     1 TWB1         1 MOLECULE 1 A  TWB 
