# Molecule written by the XED library from Cresset
@<TRIPOS>MOLECULE
A TWB 301
    23     24      1
SMALL
USER_CHARGES
@<TRIPOS>ATOM
      1  F          22.1028   12.6718    6.0671 F         1 TWB1       -0.1435
      2  C02        21.5540   13.8037    6.5145 C.ar      1 TWB1        0.1272
      3  C03        20.6760   14.5001    5.7236 C.ar      1 TWB1       -0.0724
      4  C04        20.0982   15.6733    6.1713 C.ar      1 TWB1        0.1018
      5  C06        18.6965   17.4610    5.7551 C.2       1 TWB1        0.2645
      6  C08        18.9265   18.0105    7.0546 C.2       1 TWB1       -0.0640
      7  C09        19.7419   17.3753    7.9211 C.2       1 TWB1        0.0206
      8  C10        19.9170   18.0571    9.2685 C.3       1 TWB1        0.0004
      9  C15        20.4005   16.1530    7.4503 C.ar      1 TWB1        0.0023
     10  C16        21.3176   15.4359    8.2236 C.ar      1 TWB1        0.1401
     11  C17        21.8785   14.2765    7.7743 C.ar      1 TWB1       -0.0608
     12  H          22.5254   13.7761    8.3517 H         1 TWB1        0.0956
     13  O05        19.2409   16.3010    5.3203 O.3       1 TWB1       -0.0999
     14  O07        17.9438   18.1188    5.0463 O.2       1 TWB1       -0.4079
     15  O12        19.2599   18.1636   11.8568 O.2       1 TWB1       -0.3465
     16  O13        19.5962   15.8819   10.8521 O.2       1 TWB1       -0.3465
     17  O14        17.5546   17.2158   10.2827 O.2       1 TWB1       -0.3465
     18  P11        19.0143   17.2622   10.6670 P.3       1 TWB1        0.7293
     19 H102        21.0799   18.1867    9.5339 H         1 TWB1        0.0542
     20 H103        19.4444   19.1583    9.2333 H         1 TWB1        0.0542
     21  H03        20.4480   14.1576    4.8119 H         1 TWB1        0.0949
     22  H08        18.4728   18.8517    7.3050 H         1 TWB1        0.0947
     23  F1         21.6838   15.8801    9.4208 F         1 TWB1       -0.1418
@<TRIPOS>BOND
     1      1      2 1 
     2      2      3 ar
     3      2     11 ar
     4      3      4 ar
     5      4      9 ar
     6      4     13 1 
     7      5      6 1 
     8      5     13 1 
     9      5     14 2 
    10      6      7 2 
    11      7      8 1 
    12      7      9 1 
    13      8     18 1 
    14      9     10 ar
    15     10     11 ar
    16     10     23 1 
    17     15     18 1 
    18     16     18 1 
    19     17     18 2 
    20      3     21 1 
    21      6     22 1 
    22      8     19 1 
    23      8     20 1 
    24     11     12 1 
@<TRIPOS>SUBSTRUCTURE
     1 TWB1         1 MOLECULE 1 A  TWB 
