# Molecule written by the XED library from Cresset
@<TRIPOS>MOLECULE
A TWB 301
    27     28      1
SMALL
USER_CHARGES
@<TRIPOS>ATOM
      1  H          22.1782   13.0188    6.2802 H         1 TWB1        0.0906
      2  C02        21.7333   13.8504    6.6142 C.ar      1 TWB1       -0.0760
      3  C03        20.8592   14.5237    5.8103 C.ar      1 TWB1       -0.1028
      4  C04        20.2361   15.6869    6.2547 C.ar      1 TWB1        0.1029
      5  C06        18.7300   17.5053    5.8387 C.2       1 TWB1        0.2751
      6  C08        18.9717   18.0033    7.1618 C.2       1 TWB1       -0.0576
      7  C09        19.8104   17.3624    8.0089 C.2       1 TWB1        0.0095
      8  C10        20.0385   18.0124    9.3621 C.3       1 TWB1        0.0001
      9  C15        20.4946   16.1498    7.5479 C.ar      1 TWB1       -0.0216
     10  C16        21.3900   15.4466    8.3593 C.ar      1 TWB1       -0.0732
     11  C17        22.0028   14.3185    7.8926 C.ar      1 TWB1       -0.1131
     12  H1         22.6471   13.8223    8.4758 H         1 TWB1        0.0906
     13  N          19.3586   16.3901    5.4319 N.am      1 TWB1       -0.2167
     14  O07        17.9462   18.1594    5.1546 O.2       1 TWB1       -0.4547
     15  O12        19.3560   18.0947   11.9409 O.2       1 TWB1       -0.3465
     16  O13        19.4593   15.8364   10.8238 O.2       1 TWB1       -0.3465
     17  O14        17.5819   17.4273   10.2973 O.2       1 TWB1       -0.3465
     18  P11        19.0288   17.2798   10.7098 P.3       1 TWB1        0.7292
     19 H102        21.2003   18.0140    9.6625 H         1 TWB1        0.0542
     20 H103        19.6729   19.1543    9.3410 H         1 TWB1        0.0542
     21  H03        20.6692   14.1781    4.8930 H         1 TWB1        0.0919
     22  H08        18.5055   18.8247    7.4477 H         1 TWB1        0.0942
     23  H2         21.5830   15.7671    9.2878 H         1 TWB1        0.0910
     24  C          19.0826   15.9374    4.0560 C.3       1 TWB1        0.0509
     25  H3         18.2296   16.6215    3.5650 H         1 TWB1        0.0570
     26  H4         20.0780   16.0104    3.3922 H         1 TWB1        0.0570
     27  H5         18.6927   14.8063    4.0657 H         1 TWB1        0.0570
@<TRIPOS>BOND
     1      2      3 ar
     2      2     11 ar
     3      3      4 ar
     4      4      9 ar
     5      4     13 1 
     6      5      6 1 
     7      5     13 am
     8      5     14 2 
     9      6      7 2 
    10      7      8 1 
    11      7      9 1 
    12      8     18 1 
    13      9     10 ar
    14     10     11 ar
    15     13     24 1 
    16     15     18 1 
    17     16     18 1 
    18     17     18 2 
    19      3     21 1 
    20      6     22 1 
    21      8     19 1 
    22      8     20 1 
    23     10     23 1 
    24     11     12 1 
    25     24     25 1 
    26     24     26 1 
    27     24     27 1 
    28      1      2 1 
@<TRIPOS>SUBSTRUCTURE
     1 TWB1         1 MOLECULE 1 A  TWB 
