# Molecule written by the XED library from Cresset
@<TRIPOS>MOLECULE
A TWB 301
    26     27      1
SMALL
USER_CHARGES
@<TRIPOS>ATOM
      1  C01        22.2074   12.8372    5.6599 C.3       1 TWB1       -0.0802
      2  C02        21.6571   14.0781    6.3404 C.ar      1 TWB1       -0.0524
      3  C03        20.8195   14.9172    5.6568 C.ar      1 TWB1       -0.0784
      4  C04        20.2724   16.0368    6.2626 C.ar      1 TWB1        0.0958
      5  C06        18.8759   17.8688    6.1441 C.2       1 TWB1        0.2720
      6  C08        19.1330   18.2288    7.5062 C.2       1 TWB1       -0.0511
      7  C09        19.9402   17.4553    8.2522 C.2       1 TWB1        0.0161
      8  C10        20.1117   17.8321    9.7078 C.3       1 TWB1        0.0003
      9  C15        20.5704   16.3050    7.5991 C.ar      1 TWB1       -0.0096
     10  C16        21.4495   15.4582    8.2757 C.ar      1 TWB1       -0.0690
     11  C17        21.9911   14.3663    7.6542 C.ar      1 TWB1       -0.0989
     12  H          22.6207   13.7672    8.1515 H         1 TWB1        0.0908
     13  O05        19.4521   16.8196    5.5114 O.3       1 TWB1       -0.0996
     14  O07        18.0612   18.5864    5.5790 O.2       1 TWB1       -0.4018
     15  O12        19.1824   17.2634   12.1671 O.2       1 TWB1       -0.3465
     16  O13        19.3335   15.4134   10.4725 O.2       1 TWB1       -0.3465
     17  O14        17.5873   17.2122   10.2532 O.2       1 TWB1       -0.3465
     18  P11        18.9676   16.8510   10.7359 P.3       1 TWB1        0.7293
     19 H011        21.6105   12.6134    4.6428 H         1 TWB1        0.0465
     20 H012        23.3697   12.9928    5.4085 H         1 TWB1        0.0465
     21 H013        22.0792   11.8887    6.3840 H         1 TWB1        0.0465
     22 H102        21.2472   17.7155   10.0750 H         1 TWB1        0.0542
     23 H103        19.7527   18.9588    9.9134 H         1 TWB1        0.0542
     24  H03        20.5931   14.7195    4.7036 H         1 TWB1        0.0926
     25  H08        18.6828   19.0208    7.8964 H         1 TWB1        0.0947
     26  H16        21.6804   15.6457    9.2300 H         1 TWB1        0.0910
@<TRIPOS>BOND
     1      1      2 1 
     2      2      3 ar
     3      2     11 ar
     4      3      4 ar
     5      4      9 ar
     6      4     13 1 
     7      5      6 1 
     8      5     13 1 
     9      5     14 2 
    10      6      7 2 
    11      7      8 1 
    12      7      9 1 
    13      8     18 1 
    14      9     10 ar
    15     10     11 ar
    16     15     18 1 
    17     16     18 1 
    18     17     18 2 
    19      1     19 1 
    20      1     20 1 
    21      1     21 1 
    22      3     24 1 
    23      6     25 1 
    24      8     22 1 
    25      8     23 1 
    26     10     26 1 
    27     11     12 1 
@<TRIPOS>SUBSTRUCTURE
     1 TWB1         1 MOLECULE 1 A  TWB 
