# Molecule written by the XED library from Cresset
@<TRIPOS>MOLECULE
A TWB 301
    23     24      1
SMALL
USER_CHARGES
@<TRIPOS>ATOM
      1  C02        21.7121   13.9300    6.5782 C.ar      1 TWB1       -0.0727
      2  C03        20.8672   14.6174    5.7796 C.ar      1 TWB1       -0.0754
      3  C04        20.2425   15.7957    6.2417 C.ar      1 TWB1        0.0601
      4  C06        18.8314   17.5413    5.8479 C.ar      1 TWB1        0.0548
      5  C08        19.0250   18.0254    7.1354 C.ar      1 TWB1       -0.0730
      6  C09        19.8571   17.3942    8.0020 C.ar      1 TWB1        0.0192
      7  C10        20.0469   18.0143    9.3836 C.3       1 TWB1        0.0004
      8  C15        20.4992   16.2345    7.5545 C.ar      1 TWB1       -0.0022
      9  C          21.3857   15.4879    8.3636 C.ar      1 TWB1       -0.0675
     10  C17        21.9778   14.3729    7.8865 C.ar      1 TWB1       -0.0909
     11  N          19.4122   16.4381    5.3717 N.ar      1 TWB1       -0.3562
     12  O12        19.3342   18.0983   11.9457 O.2       1 TWB1       -0.3465
     13  O13        19.3494   15.8429   10.8257 O.2       1 TWB1       -0.3465
     14  O14        17.5410   17.5130   10.2918 O.2       1 TWB1       -0.3465
     15  P11        18.9802   17.3049   10.7079 P.3       1 TWB1        0.7293
     16  H          22.1506   13.0981    6.2383 H         1 TWB1        0.0906
     17  H1         20.6794   14.2928    4.8525 H         1 TWB1        0.0919
     18  H2         18.2127   18.0428    5.2423 H         1 TWB1        0.0995
     19  H3         18.5475   18.8529    7.4270 H         1 TWB1        0.0917
     20  H4         21.1890   17.9034    9.7329 H         1 TWB1        0.0542
     21  H5         19.8019   19.1877    9.3404 H         1 TWB1        0.0542
     22  H7         22.6065   13.8546    8.4682 H         1 TWB1        0.0906
     23  H6         21.5747   15.7846    9.2993 H         1 TWB1        0.0910
@<TRIPOS>BOND
     1      1      2 ar
     2      1     10 ar
     3      2      3 ar
     4      3      8 ar
     5      3     11 ar
     6      4      5 ar
     7      4     11 ar
     8      5      6 ar
     9      6      7 1 
    10      6      8 ar
    11      7     15 1 
    12      8      9 ar
    13      9     10 ar
    14     12     15 1 
    15     13     15 1 
    16     14     15 2 
    17      1     16 1 
    18      2     17 1 
    19      4     18 1 
    20      5     19 1 
    21      7     20 1 
    22      7     21 1 
    23      9     23 1 
    24     10     22 1 
@<TRIPOS>SUBSTRUCTURE
     1 TWB1         1 MOLECULE 1 A  TWB 
