# Molecule written by the XED library from Cresset
@<TRIPOS>MOLECULE
A TWB 301
    29     30      1
SMALL
USER_CHARGES
@<TRIPOS>ATOM
      1  C          22.1856   12.8180    5.6636 C.3       1 TWB1       -0.0802
      2  C02        21.6403   14.0593    6.3415 C.ar      1 TWB1       -0.0519
      3  C03        20.7572   14.8562    5.6730 C.ar      1 TWB1       -0.0784
      4  C04        20.2063   15.9801    6.2657 C.ar      1 TWB1        0.0963
      5  C06        18.8153   17.8127    6.0461 C.2       1 TWB1        0.2721
      6  C08        19.0083   18.1777    7.4130 C.2       1 TWB1       -0.0511
      7  C09        19.8296   17.4508    8.1974 C.2       1 TWB1        0.0164
      8  C10        19.8896   17.9963    9.6130 C.3       1 TWB1        0.0003
      9  C15        20.5300   16.3027    7.5919 C.ar      1 TWB1       -0.0064
     10  C16        21.4900   15.5100    8.2467 C.ar      1 TWB1       -0.0469
     11  C17        22.0214   14.4102    7.6240 C.ar      1 TWB1       -0.0951
     12  H          22.6960   13.8475    8.1020 H         1 TWB1        0.0910
     13  O05        19.3548   16.7074    5.4897 O.3       1 TWB1       -0.0996
     14  O07        18.1070   18.5808    5.4032 O.2       1 TWB1       -0.4018
     15  O12        19.1921   17.6537   12.1500 O.2       1 TWB1       -0.3465
     16  O13        19.1956   15.6090   10.6900 O.2       1 TWB1       -0.3465
     17  O14        17.3982   17.3482   10.4248 O.2       1 TWB1       -0.3465
     18  P11        18.8363   17.0717   10.8051 P.3       1 TWB1        0.7293
     19 H102        21.0157   18.1294    9.9994 H         1 TWB1        0.0542
     20 H103        19.4087   19.0933    9.6825 H         1 TWB1        0.0542
     21  H03        20.4953   14.6218    4.7364 H         1 TWB1        0.0926
     22  H08        18.5219   18.9617    7.7685 H         1 TWB1        0.0947
     23  C1         22.0550   15.7695    9.6388 C.3       1 TWB1       -0.0794
     24  H1         23.2996   13.0299    5.2698 H         1 TWB1        0.0465
     25  H2         21.4900   12.5154    4.7319 H         1 TWB1        0.0465
     26  H3         22.1960   11.9005    6.4377 H         1 TWB1        0.0465
     27  H4         22.8065   16.7041    9.6012 H         1 TWB1        0.0465
     28  H5         22.6724   14.8287   10.0554 H         1 TWB1        0.0465
     29  H6         21.2003   15.9710   10.4469 H         1 TWB1        0.0465
@<TRIPOS>BOND
     1      1      2 1 
     2      2      3 ar
     3      2     11 ar
     4      3      4 ar
     5      4      9 ar
     6      4     13 1 
     7      5      6 1 
     8      5     13 1 
     9      5     14 2 
    10      6      7 2 
    11      7      8 1 
    12      7      9 1 
    13      8     18 1 
    14      9     10 ar
    15     10     11 ar
    16     10     23 1 
    17     15     18 1 
    18     16     18 1 
    19     17     18 2 
    20      1     24 1 
    21      1     25 1 
    22      1     26 1 
    23      3     21 1 
    24      6     22 1 
    25      8     19 1 
    26      8     20 1 
    27     11     12 1 
    28     23     27 1 
    29     23     28 1 
    30     23     29 1 
@<TRIPOS>SUBSTRUCTURE
     1 TWB1         1 MOLECULE 1 A  TWB 
