@<TRIPOS>MOLECULE
TWB
   24    25     1     0     0
SMALL
bcc


@<TRIPOS>ATOM
      1 C02         21.7090    13.9710     6.5520 ca         1 TWB      -0.261300
      2 C03         20.8570    14.6390     5.7370 ca         1 TWB      -0.094000
      3 C04         20.2530    15.8020     6.2080 ca         1 TWB      -0.134300
      4 C06         18.7520    17.6320     5.9020 ca         1 TWB      -0.104000
      5 C08         19.0060    18.0520     7.2150 ca         1 TWB      -0.160000
      6 C09         19.8680    17.3830     8.0090 ca         1 TWB       0.006400
      7 C10         20.0890    17.9540     9.4020 c3         1 TWB      -0.287300
      8 C15         20.5330    16.2260     7.5190 ca         1 TWB       0.399600
      9 N           21.4060    15.5690     8.3370 nb         1 TWB      -0.628000
     10 C17         21.9630    14.4630     7.8290 ca         1 TWB       0.390200
     11 C           19.3610    16.5360     5.3990 ca         1 TWB      -0.159000
     12 O12         19.2850    18.0460    11.9920 o          1 TWB      -0.856500
     13 O13         19.3090    15.7550    10.8640 o          1 TWB      -0.856500
     14 O14         17.5130    17.4520    10.3080 oh         1 TWB      -0.803400
     15 P11         19.0460    17.2330    10.7420 p5         1 TWB       1.335600
     16 H           22.1540    13.1310     6.2380 ha         1 TWB       0.124000
     17 H1          20.6630    14.3030     4.8150 ha         1 TWB       0.119000
     18 H3          18.5380    18.8630     7.5680 ha         1 TWB       0.140000
     19 H4          21.2370    17.7980     9.7110 hc         1 TWB       0.085200
     20 H5          19.8600    19.1320     9.3930 hc         1 TWB       0.085200
     21 H7          22.6020    13.9550     8.4060 h4         1 TWB       0.009100
     22 H2          17.1140    18.2010    10.8430 ho         1 TWB       0.420000
     23 H6          18.1020    18.1470     5.3470 ha         1 TWB       0.114000
     24 H8          19.1660    16.2380     4.4640 ha         1 TWB       0.113000
@<TRIPOS>BOND
     1     1     2 ar  
     2     1    10 ar  
     3     2     3 ar  
     4     3     8 ar  
     5     3    11 ar  
     6     4     5 ar  
     7     4    11 ar  
     8     5     6 ar  
     9     6     7 1   
    10     6     8 ar  
    11     7    15 1   
    12     8     9 ar  
    13     9    10 ar  
    14    12    15 1   
    15    13    15 1   
    16    14    15 1   
    17     1    16 1   
    18     2    17 1   
    19     4    23 1   
    20     5    18 1   
    21     7    19 1   
    22     7    20 1   
    23    10    21 1   
    24    11    24 1   
    25    14    22 1   
@<TRIPOS>SUBSTRUCTURE
     1 TWB         1 TEMP              0 ****  ****    0 ROOT
