@<TRIPOS>MOLECULE
TWB
   28    29     1     0     0
SMALL
bcc


@<TRIPOS>ATOM
      1 C02         22.2800    14.0230     7.1700 ca         1 TWB      -0.096000
      2 C03         21.4390    14.6260     6.2770 ca         1 TWB      -0.209000
      3 C04         20.6560    15.7160     6.6560 ca         1 TWB       0.092600
      4 C06         19.0310    17.3980     6.1420 c          1 TWB       0.709700
      5 C08         19.1570    17.9480     7.4540 cc         1 TWB      -0.290200
      6 C09         19.9890    17.3790     8.3480 cd         1 TWB       0.126600
      7 C10         20.1000    18.0800     9.6790 c3         1 TWB      -0.307400
      8 C15         20.7640    16.1970     7.9620 ca         1 TWB      -0.123800
      9 C           21.6150    15.5580     8.8650 ca         1 TWB      -0.063000
     10 C17         22.3610    14.4860     8.4750 ca         1 TWB      -0.180000
     11 N           19.7690    16.3350     5.7710 n          1 TWB      -0.358000
     12 O12         19.2910    18.0150    12.2540 o          1 TWB      -0.858500
     13 O13         19.7180    15.7860    11.0830 o          1 TWB      -0.858500
     14 O14         17.6710    17.1700    10.4890 oh         1 TWB      -0.791400
     15 P11         19.1990    17.1950    10.9920 p5         1 TWB       1.338600
     16 H           22.8420    13.2470     6.8800 ha         1 TWB       0.114000
     17 H1          21.3960    14.2760     5.3450 ha         1 TWB       0.121000
     18 O2          18.2140    17.9920     5.4460 o          1 TWB      -0.683500
     19 H3          18.6230    18.7430     7.6920 ha         1 TWB       0.158000
     20 H4          21.2560    18.2110     9.9750 hc         1 TWB       0.086200
     21 H5          19.5940    19.1670     9.6390 hc         1 TWB       0.086200
     22 H2          21.6790    15.8910     9.8070 ha         1 TWB       0.217000
     23 H11         17.2090    18.0220    10.7480 ho         1 TWB       0.430000
     24 H6          22.9710    14.0370     9.1280 ha         1 TWB       0.131000
     25 C1          19.5780    15.8610     4.3850 c3         1 TWB       0.073300
     26 H7          18.4010    15.8740     4.1810 h1         1 TWB       0.044367
     27 H8          20.1020    16.6190     3.6150 h1         1 TWB       0.044367
     28 H9          19.9140    14.7360     4.1440 h1         1 TWB       0.044367
@<TRIPOS>BOND
     1     1     2 ar  
     2     1    10 ar  
     3     2     3 ar  
     4     3     8 ar  
     5     3    11 1   
     6     4     5 1   
     7     4    11 1   
     8     4    18 2   
     9     5     6 2   
    10     6     7 1   
    11     6     8 1   
    12     7    15 1   
    13     8     9 ar  
    14     9    10 ar  
    15    11    25 1   
    16    12    15 1   
    17    13    15 1   
    18    14    15 1   
    19     1    16 1   
    20     2    17 1   
    21     5    19 1   
    22     7    20 1   
    23     7    21 1   
    24     9    22 1   
    25    10    24 1   
    26    14    23 1   
    27    25    26 1   
    28    25    27 1   
    29    25    28 1   
@<TRIPOS>SUBSTRUCTURE
     1 TWB         1 TEMP              0 ****  ****    0 ROOT
