@<TRIPOS>MOLECULE
TWB
   24    25     1     0     0
SMALL
bcc


@<TRIPOS>ATOM
      1 C02         22.2150    14.0510     7.0130 ca         1 TWB      -0.127000
      2 C03         21.3000    14.6380     6.2120 ca         1 TWB      -0.197300
      3 C04         20.5850    15.7730     6.6500 ca         1 TWB       0.397600
      4 C06         19.0340    17.3850     6.2110 ca         1 TWB       0.417200
      5 C08         19.1940    17.9240     7.4790 ca         1 TWB      -0.292300
      6 C09         20.0800    17.3870     8.3530 ca         1 TWB       0.078700
      7 C10         20.1880    18.0610     9.7130 c3         1 TWB      -0.301300
      8 C15         20.8220    16.2740     7.9430 ca         1 TWB      -0.153300
      9 C           21.7890    15.6360     8.7550 ca         1 TWB      -0.087000
     10 C17         22.4670    14.5600     8.3000 ca         1 TWB      -0.161000
     11 N           19.6970    16.3150     5.7700 nb         1 TWB      -0.703000
     12 O12         19.2850    18.0700    12.2660 o          1 TWB      -0.860500
     13 O13         19.6080    15.8020    11.1380 o          1 TWB      -0.860500
     14 O14         17.6620    17.2930    10.4850 oh         1 TWB      -0.791400
     15 P11         19.1820    17.2410    11.0090 p5         1 TWB       1.339600
     16 H           22.7180    13.2480     6.6900 ha         1 TWB       0.112000
     17 H1          21.1250    14.2690     5.2990 ha         1 TWB       0.128000
     18 H3          18.6480    18.7140     7.7530 ha         1 TWB       0.136000
     19 H4          21.3300    18.0720    10.0810 hc         1 TWB       0.083200
     20 H5          19.8160    19.1990     9.6530 hc         1 TWB       0.083200
     21 H11         17.2180    18.1340    10.8040 ho         1 TWB       0.428000
     22 H6          23.1500    14.1180     8.8830 ha         1 TWB       0.125000
     23 H2          18.3720    17.8140     5.5960 h4         1 TWB      -0.002900
     24 H7          21.9730    15.9810     9.6750 ha         1 TWB       0.209000
@<TRIPOS>BOND
     1     1     2 ar  
     2     1    10 ar  
     3     2     3 ar  
     4     3     8 ar  
     5     3    11 ar  
     6     4     5 ar  
     7     4    11 ar  
     8     5     6 ar  
     9     6     7 1   
    10     6     8 ar  
    11     7    15 1   
    12     8     9 ar  
    13     9    10 ar  
    14    12    15 1   
    15    13    15 1   
    16    14    15 1   
    17     1    16 1   
    18     2    17 1   
    19     4    23 1   
    20     5    18 1   
    21     7    19 1   
    22     7    20 1   
    23     9    24 1   
    24    10    22 1   
    25    14    21 1   
@<TRIPOS>SUBSTRUCTURE
     1 TWB         1 TEMP              0 ****  ****    0 ROOT
