# Molecule written by the XED library from Cresset
@<TRIPOS>MOLECULE
A TWB 301
    27     28      1
SMALL
USER_CHARGES
@<TRIPOS>ATOM
      1  C02        21.5194   14.0224    6.4108 C.ar      1 TWB1       -0.0712
      2  C03        20.6803   14.8216    5.6834 C.ar      1 TWB1       -0.0816
      3  C04        20.1052   15.9494    6.2445 C.ar      1 TWB1        0.0953
      4  C06        18.6366   17.7288    6.0675 C.2       1 TWB1        0.2720
      5  C08        18.9149   18.1600    7.4016 C.2       1 TWB1       -0.0511
      6  C09        19.7765   17.4572    8.1598 C.2       1 TWB1        0.0159
      7  C10        20.0582   18.0321    9.5282 C.3       1 TWB1       -0.0012
      8  C15        20.3966   16.2647    7.5743 C.ar      1 TWB1       -0.0093
      9  C          21.2485   15.4317    8.3052 C.ar      1 TWB1       -0.0660
     10  C17        21.8045   14.3188    7.7326 C.ar      1 TWB1       -0.0798
     11  O          19.2614   16.6866    5.4662 O.3       1 TWB1       -0.0997
     12  O12        19.3162   17.9527   12.1335 O.2       1 TWB1       -0.3354
     13  O13        19.6045   15.7259   10.9116 O.2       1 TWB1       -0.3354
     14  O14        17.6109   17.2217   10.4152 O.2       1 TWB1       -0.5166
     15  P11        19.1556   17.1621   10.8596 P.3       1 TWB1        0.6748
     16  H          21.9265   13.2125    5.9882 H         1 TWB1        0.0908
     17  H1         20.4725   14.5881    4.7327 H         1 TWB1        0.0924
     18  O2         17.7770   18.4040    5.5114 O.2       1 TWB1       -0.4018
     19  H3         18.4616   18.9687    7.7523 H         1 TWB1        0.0947
     20  H4         21.2389   18.0426    9.7433 H         1 TWB1        0.0540
     21  H5         19.6536   19.1602    9.5919 H         1 TWB1        0.0540
     22  H2         21.4468   15.6459    9.2614 H         1 TWB1        0.0912
     23  H11        17.1861   18.0618   10.7621 H         1 TWB1        0.3295
     24  C1         22.7212   13.3701    8.4921 C.3       1 TWB1       -0.0802
     25  H6         23.8217   13.3869    8.0104 H         1 TWB1        0.0465
     26  H7         22.7936   13.6460    9.6600 H         1 TWB1        0.0465
     27  H8         22.3008   12.2488    8.3893 H         1 TWB1        0.0465
@<TRIPOS>BOND
     1      1      2 ar
     2      1     10 ar
     3      2      3 ar
     4      3      8 ar
     5      3     11 1 
     6      4      5 1 
     7      4     11 1 
     8      4     18 2 
     9      5      6 2 
    10      6      7 1 
    11      6      8 1 
    12      7     15 1 
    13      8      9 ar
    14      9     10 ar
    15     10     24 1 
    16     12     15 1 
    17     13     15 1 
    18     14     15 1 
    19      1     16 1 
    20      2     17 1 
    21      5     19 1 
    22      7     20 1 
    23      7     21 1 
    24      9     22 1 
    25     14     23 1 
    26     24     25 1 
    27     24     26 1 
    28     24     27 1 
@<TRIPOS>SUBSTRUCTURE
     1 TWB1         1 MOLECULE 1 A  TWB 
