@<TRIPOS>MOLECULE
Molecule: 1
   24     0     1     0     0
SMALL
GASTEIGER


@<TRIPOS>ATOM
      1 C            22.2150   14.0510    7.0130 Du       1 MOL        0.0000
      2 C            21.3000   14.6380    6.2120 Du       1 MOL        0.0000
      3 C            20.5850   15.7730    6.6500 Du       1 MOL        0.0000
      4 C            19.0340   17.3850    6.2110 Du       1 MOL        0.0000
      5 C            19.1940   17.9240    7.4790 Du       1 MOL        0.0000
      6 C            20.0800   17.3870    8.3530 Du       1 MOL        0.0000
      7 C            20.1880   18.0610    9.7130 Du       1 MOL        0.0000
      8 C            20.8220   16.2740    7.9430 Du       1 MOL        0.0000
      9 C            21.7890   15.6360    8.7550 Du       1 MOL        0.0000
     10 C            22.4670   14.5600    8.3000 Du       1 MOL        0.0000
     11 N            19.6970   16.3150    5.7700 Du       1 MOL        0.0000
     12 O            19.2850   18.0700   12.2660 Du       1 MOL       -1.0000
     13 O            19.6080   15.8020   11.1380 Du       1 MOL       -1.0000
     14 O            17.6620   17.2930   10.4850 Du       1 MOL        0.0000
     15 P            19.1820   17.2410   11.0090 Du       1 MOL        0.0000
     16 H            22.7180   13.2480    6.6900 Du       1 MOL        0.0000
     17 H            21.1250   14.2690    5.2990 Du       1 MOL        0.0000
     18 H            18.6480   18.7140    7.7530 Du       1 MOL        0.0000
     19 H            21.3300   18.0720   10.0810 Du       1 MOL        0.0000
     20 H            19.8160   19.1990    9.6530 Du       1 MOL        0.0000
     21 H            17.2180   18.1340   10.8040 Du       1 MOL        0.0000
     22 H            23.1500   14.1180    8.8830 Du       1 MOL        0.0000
     23 H            18.3720   17.8140    5.5960 Du       1 MOL        0.0000
     24 H            21.9730   15.9810    9.6750 Du       1 MOL        0.0000
@<TRIPOS>SUBSTRUCTURE
     1 MOL         1  RESIDUE
