@<TRIPOS>MOLECULE
Molecule: 1
   27     0     1     0     0
SMALL
GASTEIGER


@<TRIPOS>ATOM
      1 C            21.5580   13.9840    6.4350 Du       1 MOL        0.0000
      2 C            20.7190   14.7740    5.6900 Du       1 MOL        0.0000
      3 C            20.1370   15.9160    6.2360 Du       1 MOL        0.0000
      4 C            18.6630   17.6920    6.0630 Du       1 MOL        0.0000
      5 C            18.9360   18.1340    7.3960 Du       1 MOL        0.0000
      6 C            19.8010   17.4420    8.1550 Du       1 MOL        0.0000
      7 C            20.0970   17.9960    9.5320 Du       1 MOL        0.0000
      8 C            20.4220   16.2560    7.5610 Du       1 MOL        0.0000
      9 C            21.2770   15.4480    8.3080 Du       1 MOL        0.0000
     10 C            21.8350   14.3340    7.7470 Du       1 MOL        0.0000
     11 O            19.2850   16.6460    5.4610 Du       1 MOL        0.0000
     12 O            19.3140   17.9490   12.1310 Du       1 MOL       -1.0000
     13 O            19.5610   15.7060   10.9320 Du       1 MOL       -1.0000
     14 O            17.6230   17.2520   10.3870 Du       1 MOL        0.0000
     15 P            19.1570   17.1540   10.8590 Du       1 MOL        0.0000
     16 C            22.1900   12.7090    5.8960 Du       1 MOL        0.0000
     17 O            17.8000   18.3650    5.5110 Du       1 MOL        0.0000
     18 H            20.5130   14.5190    4.7440 Du       1 MOL        0.0000
     19 H            18.4750   18.9390    7.7470 Du       1 MOL        0.0000
     20 H            21.2740   17.9800    9.7630 Du       1 MOL        0.0000
     21 H            19.7260   19.1350    9.5950 Du       1 MOL        0.0000
     22 H            21.4780   15.6770    9.2630 Du       1 MOL        0.0000
     23 H            17.1960   18.0720   10.7750 Du       1 MOL        0.0000
     24 H            22.4430   13.7560    8.2910 Du       1 MOL        0.0000
     25 H            23.3820   12.7480    6.0460 Du       1 MOL        0.0000
     26 H            21.9630   12.5400    4.7290 Du       1 MOL        0.0000
     27 H            21.7520   11.7670    6.5000 Du       1 MOL        0.0000
@<TRIPOS>SUBSTRUCTURE
     1 MOL         1  RESIDUE
