@<TRIPOS>MOLECULE
Molecule: 1
   28     0     1     0     0
SMALL
GASTEIGER


@<TRIPOS>ATOM
      1 C            22.2800   14.0230    7.1700 Du       1 MOL        0.0000
      2 C            21.4390   14.6260    6.2770 Du       1 MOL        0.0000
      3 C            20.6560   15.7160    6.6560 Du       1 MOL        0.0000
      4 C            19.0310   17.3980    6.1420 Du       1 MOL        0.0000
      5 C            19.1570   17.9480    7.4540 Du       1 MOL        0.0000
      6 C            19.9890   17.3790    8.3480 Du       1 MOL        0.0000
      7 C            20.1000   18.0800    9.6790 Du       1 MOL        0.0000
      8 C            20.7640   16.1970    7.9620 Du       1 MOL        0.0000
      9 C            21.6150   15.5580    8.8650 Du       1 MOL        0.0000
     10 C            22.3610   14.4860    8.4750 Du       1 MOL        0.0000
     11 N            19.7690   16.3350    5.7710 Du       1 MOL        0.0000
     12 O            19.2910   18.0150   12.2540 Du       1 MOL       -1.0000
     13 O            19.7180   15.7860   11.0830 Du       1 MOL       -1.0000
     14 O            17.6710   17.1700   10.4890 Du       1 MOL        0.0000
     15 P            19.1990   17.1950   10.9920 Du       1 MOL        0.0000
     16 O            18.2140   17.9920    5.4460 Du       1 MOL        0.0000
     17 C            19.5780   15.8610    4.3850 Du       1 MOL        0.0000
     18 H            22.8420   13.2470    6.8800 Du       1 MOL        0.0000
     19 H            21.3960   14.2760    5.3450 Du       1 MOL        0.0000
     20 H            18.6229   18.7430    7.6920 Du       1 MOL        0.0000
     21 H            21.2560   18.2110    9.9750 Du       1 MOL        0.0000
     22 H            19.5940   19.1670    9.6390 Du       1 MOL        0.0000
     23 H            21.6790   15.8910    9.8070 Du       1 MOL        0.0000
     24 H            17.2090   18.0220   10.7480 Du       1 MOL        0.0000
     25 H            22.9710   14.0370    9.1280 Du       1 MOL        0.0000
     26 H            18.4010   15.8740    4.1810 Du       1 MOL        0.0000
     27 H            20.1020   16.6190    3.6150 Du       1 MOL        0.0000
     28 H            19.9140   14.7360    4.1440 Du       1 MOL        0.0000
@<TRIPOS>SUBSTRUCTURE
     1 MOL         1  RESIDUE
