@<TRIPOS>MOLECULE
Molecule: 1
   31     0     1     0     0
SMALL
GASTEIGER


@<TRIPOS>ATOM
      1 C            22.2440   13.9720    6.9580 Du       1 MOL        0.0000
      2 C            21.2750   14.5810    6.2150 Du       1 MOL        0.0000
      3 C            20.6070   15.7020    6.6940 Du       1 MOL        0.0000
      4 C            18.9420   17.3800    6.2640 Du       1 MOL        0.0000
      5 C            19.1630   17.9200    7.5680 Du       1 MOL        0.0000
      6 C            20.0750   17.3730    8.4060 Du       1 MOL        0.0000
      7 C            20.0880   18.1180    9.7250 Du       1 MOL        0.0000
      8 C            20.8930   16.2260    7.9580 Du       1 MOL        0.0000
      9 C            21.9290   15.6140    8.6870 Du       1 MOL        0.0000
     10 C            22.5740   14.5120    8.1910 Du       1 MOL        0.0000
     11 N            19.6430   16.3000    5.9000 Du       1 MOL        0.0000
     12 O            19.2440   18.0710   12.2910 Du       1 MOL       -1.0000
     13 O            19.5569   15.8180   11.1280 Du       1 MOL       -1.0000
     14 O            17.6030   17.2970   10.5180 Du       1 MOL        0.0000
     15 P            19.1290   17.2560   11.0270 Du       1 MOL        0.0000
     16 C            22.9460   12.7330    6.4230 Du       1 MOL        0.0000
     17 O            18.1060   17.9350    5.5610 Du       1 MOL        0.0000
     18 C            22.4440   16.0990   10.0330 Du       1 MOL        0.0000
     19 H            21.0410   14.2130    5.3160 Du       1 MOL        0.0000
     20 H            18.6130   18.6920    7.8490 Du       1 MOL        0.0000
     21 H            21.1990   18.3850   10.0780 Du       1 MOL        0.0000
     22 H            19.5210   19.1730    9.6480 Du       1 MOL        0.0000
     23 H            17.1680   18.1530   10.8060 Du       1 MOL        0.0000
     24 H            23.2990   14.0820    8.7270 Du       1 MOL        0.0000
     25 H            19.4700   15.9560    5.1090 Du       1 MOL        0.0000
     26 H            23.9810   13.0440    5.8990 Du       1 MOL        0.0000
     27 H            22.2490   12.1800    5.6140 Du       1 MOL        0.0000
     28 H            23.1730   11.9550    7.3100 Du       1 MOL        0.0000
     29 H            22.9740   17.1580    9.8590 Du       1 MOL        0.0000
     30 H            23.2730   15.3700   10.5060 Du       1 MOL        0.0000
     31 H            21.5610   16.1960   10.8330 Du       1 MOL        0.0000
@<TRIPOS>SUBSTRUCTURE
     1 MOL         1  RESIDUE
