@<TRIPOS>MOLECULE
Molecule: 1
   28     0     1     0     0
SMALL
GASTEIGER


@<TRIPOS>ATOM
      1 C            21.6020   13.9240    6.4120 Du       1 MOL        0.0000
      2 C            20.7600   14.7350    5.6940 Du       1 MOL        0.0000
      3 C            20.1770   15.8550    6.2590 Du       1 MOL        0.0000
      4 C            18.7090   17.6270    6.0700 Du       1 MOL        0.0000
      5 C            18.9870   18.0730    7.3950 Du       1 MOL        0.0000
      6 C            19.8450   17.3780    8.1640 Du       1 MOL        0.0000
      7 C            20.1190   17.9660    9.5300 Du       1 MOL        0.0000
      8 C            20.4650   16.1840    7.5870 Du       1 MOL        0.0000
      9 C            21.3210   15.3580    8.3180 Du       1 MOL        0.0000
     10 C            21.8810   14.2520    7.7400 Du       1 MOL        0.0000
     11 O            19.3210   16.5720    5.4820 Du       1 MOL        0.0000
     12 O            19.3100   17.9540   12.1250 Du       1 MOL       -1.0000
     13 O            19.5420   15.7040   10.9310 Du       1 MOL       -1.0000
     14 O            17.6250   17.2690   10.3680 Du       1 MOL        0.0000
     15 P            19.1530   17.1550   10.8540 Du       1 MOL        0.0000
     16 O            22.1030   12.8420    5.8080 Du       1 MOL        0.0000
     17 O            17.8560   18.2980    5.5050 Du       1 MOL        0.0000
     18 C            22.3750   11.6820    6.6140 Du       1 MOL        0.0000
     19 H            20.5500   14.5050    4.7440 Du       1 MOL        0.0000
     20 H            18.5340   18.8840    7.7380 Du       1 MOL        0.0000
     21 H            21.2910   17.9530    9.7840 Du       1 MOL        0.0000
     22 H            19.7500   19.1060    9.5740 Du       1 MOL        0.0000
     23 H            22.4910   13.6700    8.2790 Du       1 MOL        0.0000
     24 H            21.5210   15.5720    9.2760 Du       1 MOL        0.0000
     25 H            17.1900   18.0700   10.7890 Du       1 MOL        0.0000
     26 H            23.3950   11.8210    7.2290 Du       1 MOL        0.0000
     27 H            21.4660   11.4980    7.3760 Du       1 MOL        0.0000
     28 H            22.4750   10.7100    5.9200 Du       1 MOL        0.0000
@<TRIPOS>SUBSTRUCTURE
     1 MOL         1  RESIDUE
