@<TRIPOS>MOLECULE
Molecule: 1
   27     0     1     0     0
SMALL
GASTEIGER


@<TRIPOS>ATOM
      1 C            21.4960   14.0740    6.2420 Du       1 MOL        0.0000
      2 C            20.5550   14.8400    5.6090 Du       1 MOL        0.0000
      3 C            20.0350   15.9780    6.2030 Du       1 MOL        0.0000
      4 C            18.5550   17.7490    6.0980 Du       1 MOL        0.0000
      5 C            18.8750   18.1710    7.4240 Du       1 MOL        0.0000
      6 C            19.7940   17.4920    8.1350 Du       1 MOL        0.0000
      7 C            20.0470   18.0640    9.5170 Du       1 MOL        0.0000
      8 C            20.4420   16.3450    7.4880 Du       1 MOL        0.0000
      9 C            21.4410   15.5810    8.1000 Du       1 MOL        0.0000
     10 C            21.9510   14.4650    7.4890 Du       1 MOL        0.0000
     11 O            19.1170   16.6810    5.4870 Du       1 MOL        0.0000
     12 O            19.2910   17.9820   12.1210 Du       1 MOL       -1.0000
     13 O            19.5760   15.7460   10.9170 Du       1 MOL       -1.0000
     14 O            17.5910   17.2340   10.4070 Du       1 MOL        0.0000
     15 P            19.1370   17.1850   10.8480 Du       1 MOL        0.0000
     16 C            22.0270   12.8090    5.5880 Du       1 MOL        0.0000
     17 O            17.7090   18.4400    5.5440 Du       1 MOL        0.0000
     18 F            21.9190   15.9300    9.2960 Du       1 MOL        0.0000
     19 H            20.2300   14.5720    4.7010 Du       1 MOL        0.0000
     20 H            18.4030   18.9530    7.8060 Du       1 MOL        0.0000
     21 H            21.2180   18.1390    9.7650 Du       1 MOL        0.0000
     22 H            19.6060   19.1770    9.5970 Du       1 MOL        0.0000
     23 H            17.1610   18.0750   10.7450 Du       1 MOL        0.0000
     24 H            22.6550   13.9270    7.9520 Du       1 MOL        0.0000
     25 H            23.2240   12.8540    5.5000 Du       1 MOL        0.0000
     26 H            21.5640   12.6710    4.4890 Du       1 MOL        0.0000
     27 H            21.7160   11.8560    6.2500 Du       1 MOL        0.0000
@<TRIPOS>SUBSTRUCTURE
     1 MOL         1  RESIDUE
