@<TRIPOS>MOLECULE
Molecule: 1
   29     0     1     0     0
SMALL
GASTEIGER


@<TRIPOS>ATOM
      1 C            21.4350   14.0610    6.1590 Du       1 MOL        0.0000
      2 C            20.5010   14.8400    5.5310 Du       1 MOL        0.0000
      3 C            19.9930   15.9750    6.1420 Du       1 MOL        0.0000
      4 C            18.5230   17.7580    6.0440 Du       1 MOL        0.0000
      5 C            18.8400   18.1620    7.3770 Du       1 MOL        0.0000
      6 C            19.7530   17.4690    8.0840 Du       1 MOL        0.0000
      7 C            20.0080   18.0330    9.4670 Du       1 MOL        0.0000
      8 C            20.4070   16.3260    7.4320 Du       1 MOL        0.0000
      9 C            21.4150   15.5540    8.0260 Du       1 MOL        0.0000
     10 C            21.8970   14.4400    7.4040 Du       1 MOL        0.0000
     11 O            19.0840   16.6920    5.4270 Du       1 MOL        0.0000
     12 O            19.2950   18.0060   12.0750 Du       1 MOL       -1.0000
     13 O            19.5389   15.7400   10.9270 Du       1 MOL       -1.0000
     14 O            17.5510   17.2230   10.4190 Du       1 MOL        0.0000
     15 P            19.1060   17.1800   10.8270 Du       1 MOL        0.0000
     16 C            21.9790   12.8030    5.5120 Du       1 MOL        0.0000
     17 O            17.6830   18.4660    5.5020 Du       1 MOL        0.0000
     18 B            22.2130   15.9810    9.6740 Du       1 MOL        0.0000
     19 H            20.1740   14.5880    4.6190 Du       1 MOL        0.0000
     20 H            18.3740   18.9430    7.7670 Du       1 MOL        0.0000
     21 H            21.1840   18.0590    9.6920 Du       1 MOL        0.0000
     22 H            19.6080   19.1620    9.5450 Du       1 MOL        0.0000
     23 H            17.1350   18.0750   10.7440 Du       1 MOL        0.0000
     24 H            22.6020   13.8960    7.8630 Du       1 MOL        0.0000
     25 H            23.1750   12.8730    5.4290 Du       1 MOL        0.0000
     26 H            21.5140   12.6680    4.4130 Du       1 MOL        0.0000
     27 H            21.6840   11.8490    6.1810 Du       1 MOL        0.0000
     28 H            21.8984   16.8616   10.2143 Du       1 MOL        0.0000
     29 H            22.9860   15.3456   10.0804 Du       1 MOL        0.0000
@<TRIPOS>SUBSTRUCTURE
     1 MOL         1  RESIDUE
