@<TRIPOS>MOLECULE
Molecule: 1
   30     0     1     0     0
SMALL
GASTEIGER


@<TRIPOS>ATOM
      1 C            21.5280   14.0200    6.3150 Du       1 MOL        0.0000
      2 C            20.6240   14.8130    5.6720 Du       1 MOL        0.0000
      3 C            20.1150   15.9520    6.2760 Du       1 MOL        0.0000
      4 C            18.6390   17.7220    6.1180 Du       1 MOL        0.0000
      5 C            18.9170   18.1360    7.4540 Du       1 MOL        0.0000
      6 C            19.8190   17.4630    8.1940 Du       1 MOL        0.0000
      7 C            19.9840   18.0970    9.5610 Du       1 MOL        0.0000
      8 C            20.4900   16.2960    7.5850 Du       1 MOL        0.0000
      9 C            21.4610   15.4960    8.2130 Du       1 MOL        0.0000
     10 C            21.9510   14.3860    7.5780 Du       1 MOL        0.0000
     11 O            19.2420   16.6720    5.5200 Du       1 MOL        0.0000
     12 O            19.2530   17.9840   12.1660 Du       1 MOL       -1.0000
     13 O            19.4920   15.7590   10.9360 Du       1 MOL       -1.0000
     14 O            17.5230   17.2680   10.4650 Du       1 MOL        0.0000
     15 P            19.0740   17.2040   10.8880 Du       1 MOL        0.0000
     16 C            22.0620   12.7560    5.6680 Du       1 MOL        0.0000
     17 O            17.7970   18.4110    5.5530 Du       1 MOL        0.0000
     18 C            22.1250   15.6880    9.5750 Du       1 MOL        0.0000
     19 H            20.3180   14.5720    4.7510 Du       1 MOL        0.0000
     20 H            18.4300   18.9160    7.8180 Du       1 MOL        0.0000
     21 H            21.1440   18.2680    9.8110 Du       1 MOL        0.0000
     22 H            19.4880   19.1890    9.5980 Du       1 MOL        0.0000
     23 H            17.1150   18.1260   10.7860 Du       1 MOL        0.0000
     24 H            22.6340   13.8190    8.0400 Du       1 MOL        0.0000
     25 H            23.1720   12.5080    6.0530 Du       1 MOL        0.0000
     26 H            22.0850   12.8640    4.4730 Du       1 MOL        0.0000
     27 H            21.3390   11.8470    5.9670 Du       1 MOL        0.0000
     28 H            23.1480   16.2950    9.4300 Du       1 MOL        0.0000
     29 H            22.3990   14.6250   10.0640 Du       1 MOL        0.0000
     30 H            21.4600   16.2420   10.3940 Du       1 MOL        0.0000
@<TRIPOS>SUBSTRUCTURE
     1 MOL         1  RESIDUE
