@<TRIPOS>MOLECULE
Molecule: 1
   31     0     1     0     0
SMALL
GASTEIGER


@<TRIPOS>ATOM
      1 C            21.4640   14.0850    6.2260 Du       1 MOL        0.0000
      2 C            20.5320   14.8510    5.5760 Du       1 MOL        0.0000
      3 C            20.0030   15.9870    6.1660 Du       1 MOL        0.0000
      4 C            18.5320   17.7660    6.0460 Du       1 MOL        0.0000
      5 C            18.8500   18.1920    7.3680 Du       1 MOL        0.0000
      6 C            19.7550   17.5070    8.0910 Du       1 MOL        0.0000
      7 C            19.9940   18.1060    9.4660 Du       1 MOL        0.0000
      8 C            20.3960   16.3430    7.4620 Du       1 MOL        0.0000
      9 C            21.3700   15.5700    8.1170 Du       1 MOL        0.0000
     10 C            21.8880   14.4590    7.4860 Du       1 MOL        0.0000
     11 O            19.0920   16.6930    5.4400 Du       1 MOL        0.0000
     12 O            19.3450   17.9830   12.0900 Du       1 MOL       -1.0000
     13 O            19.6580   15.7560   10.8790 Du       1 MOL       -1.0000
     14 O            17.6170   17.1890   10.4170 Du       1 MOL        0.0000
     15 P            19.1720   17.1820   10.8230 Du       1 MOL        0.0000
     16 C            22.0190   12.8200    5.5930 Du       1 MOL        0.0000
     17 O            17.6930   18.4710    5.5030 Du       1 MOL        0.0000
     18 O            21.7530   15.9180    9.3500 Du       1 MOL        0.0000
     19 C            23.0910   15.6440    9.8000 Du       1 MOL        0.0000
     20 H            20.2190   14.5870    4.6620 Du       1 MOL        0.0000
     21 H            18.3900   18.9830    7.7400 Du       1 MOL        0.0000
     22 H            21.1660   18.2470    9.6850 Du       1 MOL        0.0000
     23 H            19.4940   19.1920    9.5530 Du       1 MOL        0.0000
     24 H            17.1800   18.0280   10.7500 Du       1 MOL        0.0000
     25 H            22.5750   13.9010    7.9500 Du       1 MOL        0.0000
     26 H            23.1740   12.6750    5.8860 Du       1 MOL        0.0000
     27 H            21.9310   12.8420    4.3960 Du       1 MOL        0.0000
     28 H            21.4010   11.8770    6.0050 Du       1 MOL        0.0000
     29 H            23.8680   16.1440    9.0340 Du       1 MOL        0.0000
     30 H            23.2080   16.1670   10.8730 Du       1 MOL        0.0000
     31 H            23.2810   14.4690    9.9430 Du       1 MOL        0.0000
@<TRIPOS>SUBSTRUCTURE
     1 MOL         1  RESIDUE
