@<TRIPOS>MOLECULE
Molecule: 1
   24     0     1     0     0
SMALL
GASTEIGER


@<TRIPOS>ATOM
      1 C            21.7090   13.9710    6.5520 Du       1 MOL        0.0000
      2 C            20.8570   14.6390    5.7370 Du       1 MOL        0.0000
      3 C            20.2530   15.8020    6.2080 Du       1 MOL        0.0000
      4 C            18.7520   17.6320    5.9020 Du       1 MOL        0.0000
      5 C            19.0060   18.0520    7.2150 Du       1 MOL        0.0000
      6 C            19.8680   17.3830    8.0090 Du       1 MOL        0.0000
      7 C            20.0890   17.9540    9.4020 Du       1 MOL        0.0000
      8 C            20.5330   16.2260    7.5190 Du       1 MOL        0.0000
      9 N            21.4060   15.5690    8.3370 Du       1 MOL        0.0000
     10 C            21.9630   14.4630    7.8290 Du       1 MOL        0.0000
     11 C            19.3610   16.5360    5.3990 Du       1 MOL        0.0000
     12 O            19.2850   18.0460   11.9920 Du       1 MOL       -1.0000
     13 O            19.3090   15.7550   10.8640 Du       1 MOL       -1.0000
     14 O            17.5130   17.4520   10.3080 Du       1 MOL        0.0000
     15 P            19.0460   17.2330   10.7420 Du       1 MOL        0.0000
     16 H            22.1540   13.1310    6.2380 Du       1 MOL        0.0000
     17 H            20.6630   14.3030    4.8150 Du       1 MOL        0.0000
     18 H            18.5380   18.8630    7.5680 Du       1 MOL        0.0000
     19 H            21.2370   17.7980    9.7110 Du       1 MOL        0.0000
     20 H            19.8600   19.1320    9.3930 Du       1 MOL        0.0000
     21 H            22.6020   13.9550    8.4060 Du       1 MOL        0.0000
     22 H            17.1140   18.2010   10.8430 Du       1 MOL        0.0000
     23 H            18.1020   18.1470    5.3470 Du       1 MOL        0.0000
     24 H            19.1660   16.2380    4.4640 Du       1 MOL        0.0000
@<TRIPOS>SUBSTRUCTURE
     1 MOL         1  RESIDUE
