@<TRIPOS>MOLECULE
Molecule: 1
   24     0     1     0     0
SMALL
GASTEIGER


@<TRIPOS>ATOM
      1 C            21.4700   14.0670    6.2360 Du       1 MOL        0.0000
      2 C            20.5460   14.8330    5.5720 Du       1 MOL        0.0000
      3 C            20.0110   15.9680    6.1580 Du       1 MOL        0.0000
      4 C            18.5420   17.7510    6.0430 Du       1 MOL        0.0000
      5 C            18.8580   18.1770    7.3660 Du       1 MOL        0.0000
      6 C            19.7640   17.4920    8.0880 Du       1 MOL        0.0000
      7 C            20.0170   18.0810    9.4630 Du       1 MOL        0.0000
      8 C            20.3960   16.3310    7.4540 Du       1 MOL        0.0000
      9 C            21.3600   15.5510    8.0980 Du       1 MOL        0.0000
     10 C            21.8890   14.4370    7.5040 Du       1 MOL        0.0000
     11 O            19.1030   16.6790    5.4330 Du       1 MOL        0.0000
     12 O            19.3370   17.9820   12.0950 Du       1 MOL       -1.0000
     13 O            19.6539   15.7560   10.8850 Du       1 MOL       -1.0000
     14 O            17.6160   17.1890   10.4220 Du       1 MOL        0.0000
     15 P            19.1730   17.1810   10.8260 Du       1 MOL        0.0000
     16 F            21.9630   12.9630    5.6570 Du       1 MOL        0.0000
     17 O            17.7000   18.4590    5.5070 Du       1 MOL        0.0000
     18 F            21.7820   15.8920    9.3110 Du       1 MOL        0.0000
     19 H            20.2480   14.5680    4.6530 Du       1 MOL        0.0000
     20 H            18.3950   18.9700    7.7380 Du       1 MOL        0.0000
     21 H            21.1900   18.2010    9.6820 Du       1 MOL        0.0000
     22 H            19.5360   19.1770    9.5460 Du       1 MOL        0.0000
     23 H            17.1800   18.0310   10.7490 Du       1 MOL        0.0000
     24 H            22.5730   13.8900    7.9890 Du       1 MOL        0.0000
@<TRIPOS>SUBSTRUCTURE
     1 MOL         1  RESIDUE
