@<TRIPOS>MOLECULE
Molecule: 1
   30     0     1     0     0
SMALL
GASTEIGER


@<TRIPOS>ATOM
      1 C            21.6020   13.9130    6.4820 Du       1 MOL        0.0000
      2 C            20.7590   14.6940    5.7360 Du       1 MOL        0.0000
      3 C            20.1750   15.8390    6.2610 Du       1 MOL        0.0000
      4 C            18.7100   17.6140    6.0400 Du       1 MOL        0.0000
      5 C            18.9740   18.0800    7.3640 Du       1 MOL        0.0000
      6 C            19.8330   17.3990    8.1430 Du       1 MOL        0.0000
      7 C            20.1010   17.9910    9.5090 Du       1 MOL        0.0000
      8 C            20.4600   16.2010    7.5780 Du       1 MOL        0.0000
      9 C            21.3170   15.3970    8.3290 Du       1 MOL        0.0000
     10 C            21.8830   14.2700    7.7980 Du       1 MOL        0.0000
     11 O            19.3200   16.5470    5.4660 Du       1 MOL        0.0000
     12 O            19.2960   17.9660   12.1070 Du       1 MOL       -1.0000
     13 O            19.5090   15.7210   10.9010 Du       1 MOL       -1.0000
     14 O            17.6080   17.3040   10.3440 Du       1 MOL        0.0000
     15 P            19.1340   17.1750   10.8310 Du       1 MOL        0.0000
     16 C            22.1820   12.6580    5.8460 Du       1 MOL        0.0000
     17 O            17.8620   18.2870    5.4700 Du       1 MOL        0.0000
     18 C            22.7830   13.4370    8.6980 Du       1 MOL        0.0000
     19 H            20.5510   14.4290    4.7950 Du       1 MOL        0.0000
     20 H            18.5130   18.8950    7.6950 Du       1 MOL        0.0000
     21 H            21.2740   17.9920    9.7620 Du       1 MOL        0.0000
     22 H            19.7130   19.1250    9.5370 Du       1 MOL        0.0000
     23 H            21.5120   15.6410    9.2790 Du       1 MOL        0.0000
     24 H            23.3790   12.6600    5.9270 Du       1 MOL        0.0000
     25 H            21.8910   12.5790    4.6850 Du       1 MOL        0.0000
     26 H            21.7450   11.6940    6.4130 Du       1 MOL        0.0000
     27 H            23.8070   13.1810    8.1270 Du       1 MOL        0.0000
     28 H            23.0450   14.0240    9.7120 Du       1 MOL        0.0000
     29 H            22.2070   12.4180    8.9680 Du       1 MOL        0.0000
     30 H            17.1280   17.9830   10.9030 Du       1 MOL        0.0000
@<TRIPOS>SUBSTRUCTURE
     1 MOL         1  RESIDUE
