@<TRIPOS>MOLECULE
Molecule: 1
   25     0     1     0     0
SMALL
GASTEIGER


@<TRIPOS>ATOM
      1 C            21.5870   14.1170    6.2970 Du       1 MOL        0.0000
      2 C            20.6580   14.8610    5.6250 Du       1 MOL        0.0000
      3 C            20.0780   15.9680    6.2340 Du       1 MOL        0.0000
      4 C            18.5220   17.7940    6.0830 Du       1 MOL        0.0000
      5 C            18.8640   18.1870    7.4170 Du       1 MOL        0.0000
      6 C            19.7680   17.4830    8.1360 Du       1 MOL        0.0000
      7 C            20.0850   18.0300    9.5090 Du       1 MOL        0.0000
      8 C            20.4220   16.3110    7.5390 Du       1 MOL        0.0000
      9 C            21.3650   15.5340    8.2150 Du       1 MOL        0.0000
     10 C            21.9430   14.4590    7.5970 Du       1 MOL        0.0000
     11 N            19.1440   16.7290    5.5540 Du       1 MOL        0.0000
     12 O            19.3270   17.9690   12.1090 Du       1 MOL       -1.0000
     13 O            19.6350   15.7330   10.9060 Du       1 MOL       -1.0000
     14 O            17.6340   17.2140   10.3950 Du       1 MOL        0.0000
     15 P            19.1780   17.1660   10.8410 Du       1 MOL        0.0000
     16 O            17.6750   18.4620    5.5050 Du       1 MOL        0.0000
     17 H            22.0080   13.3250    5.8510 Du       1 MOL        0.0000
     18 H            20.3950   14.6130    4.6920 Du       1 MOL        0.0000
     19 H            18.4190   18.9820    7.8080 Du       1 MOL        0.0000
     20 H            21.2670   18.0100    9.7140 Du       1 MOL        0.0000
     21 H            19.7240   19.1700    9.5920 Du       1 MOL        0.0000
     22 H            21.6180   15.7620    9.1560 Du       1 MOL        0.0000
     23 H            17.2000   18.0470   10.7450 Du       1 MOL        0.0000
     24 H            22.6250   13.9120    8.0850 Du       1 MOL        0.0000
     25 H            18.9330   16.5000    4.7320 Du       1 MOL        0.0000
@<TRIPOS>SUBSTRUCTURE
     1 MOL         1  RESIDUE
