@<TRIPOS>MOLECULE
Molecule: 1
   27     0     1     0     0
SMALL
GASTEIGER


@<TRIPOS>ATOM
      1 C            21.5330   14.0120    6.3830 Du       1 MOL        0.0000
      2 C            20.7040   14.7860    5.6210 Du       1 MOL        0.0000
      3 C            20.1450   15.9060    6.2190 Du       1 MOL        0.0000
      4 C            18.6700   17.6780    6.0620 Du       1 MOL        0.0000
      5 C            18.9590   18.1070    7.3940 Du       1 MOL        0.0000
      6 C            19.8270   17.4100    8.1510 Du       1 MOL        0.0000
      7 C            20.1100   17.9770    9.5270 Du       1 MOL        0.0000
      8 C            20.4460   16.2290    7.5550 Du       1 MOL        0.0000
      9 C            21.3040   15.4130    8.3100 Du       1 MOL        0.0000
     10 C            21.8210   14.3110    7.6890 Du       1 MOL        0.0000
     11 O            19.2820   16.6340    5.4550 Du       1 MOL        0.0000
     12 O            19.3120   17.9500   12.1300 Du       1 MOL       -1.0000
     13 O            19.5520   15.7040   10.9340 Du       1 MOL       -1.0000
     14 O            17.6240   17.2590   10.3800 Du       1 MOL        0.0000
     15 P            19.1560   17.1540   10.8570 Du       1 MOL        0.0000
     16 O            22.1240   12.8840    6.0330 Du       1 MOL        0.0000
     17 O            17.8100   18.3490    5.5030 Du       1 MOL        0.0000
     18 O            22.6060   13.3660    8.1990 Du       1 MOL        0.0000
     19 C            22.7410   12.2990    7.2130 Du       1 MOL        0.0000
     20 H            20.4920   14.5440    4.6730 Du       1 MOL        0.0000
     21 H            18.5030   18.9080    7.7500 Du       1 MOL        0.0000
     22 H            21.2850   17.9630    9.7690 Du       1 MOL        0.0000
     23 H            19.7360   19.1160    9.5820 Du       1 MOL        0.0000
     24 H            21.5140   15.6210    9.2660 Du       1 MOL        0.0000
     25 H            17.1950   18.0730   10.7810 Du       1 MOL        0.0000
     26 H            23.8690   11.9600    7.0230 Du       1 MOL        0.0000
     27 H            22.0650   11.3680    7.5510 Du       1 MOL        0.0000
@<TRIPOS>SUBSTRUCTURE
     1 MOL         1  RESIDUE
