@<TRIPOS>MOLECULE
Molecule: 1
   27     0     1     0     0
SMALL
GASTEIGER


@<TRIPOS>ATOM
      1 C            21.5190   14.0220    6.4110 Du       1 MOL        0.0000
      2 C            20.6800   14.8220    5.6830 Du       1 MOL        0.0000
      3 C            20.1050   15.9490    6.2450 Du       1 MOL        0.0000
      4 C            18.6370   17.7290    6.0670 Du       1 MOL        0.0000
      5 C            18.9150   18.1600    7.4020 Du       1 MOL        0.0000
      6 C            19.7760   17.4570    8.1600 Du       1 MOL        0.0000
      7 C            20.0580   18.0320    9.5280 Du       1 MOL        0.0000
      8 C            20.3970   16.2650    7.5740 Du       1 MOL        0.0000
      9 C            21.2480   15.4320    8.3050 Du       1 MOL        0.0000
     10 C            21.8050   14.3190    7.7330 Du       1 MOL        0.0000
     11 O            19.2610   16.6870    5.4660 Du       1 MOL        0.0000
     12 O            19.3160   17.9530   12.1330 Du       1 MOL       -1.0000
     13 O            19.6049   15.7260   10.9120 Du       1 MOL       -1.0000
     14 O            17.6110   17.2220   10.4150 Du       1 MOL        0.0000
     15 P            19.1560   17.1620   10.8600 Du       1 MOL        0.0000
     16 O            17.7770   18.4040    5.5110 Du       1 MOL        0.0000
     17 C            22.7210   13.3700    8.4920 Du       1 MOL        0.0000
     18 H            21.9270   13.2130    5.9880 Du       1 MOL        0.0000
     19 H            20.4730   14.5880    4.7330 Du       1 MOL        0.0000
     20 H            18.4620   18.9690    7.7520 Du       1 MOL        0.0000
     21 H            21.2390   18.0430    9.7430 Du       1 MOL        0.0000
     22 H            19.6540   19.1600    9.5920 Du       1 MOL        0.0000
     23 H            21.4470   15.6460    9.2610 Du       1 MOL        0.0000
     24 H            17.1860   18.0620   10.7620 Du       1 MOL        0.0000
     25 H            23.8220   13.3870    8.0100 Du       1 MOL        0.0000
     26 H            22.7940   13.6460    9.6600 Du       1 MOL        0.0000
     27 H            22.3010   12.2490    8.3890 Du       1 MOL        0.0000
@<TRIPOS>SUBSTRUCTURE
     1 MOL         1  RESIDUE
