@<TRIPOS>MOLECULE
Molecule: 1
   29     0     1     0     0
SMALL
GASTEIGER


@<TRIPOS>ATOM
      1 C            22.1640   14.0290    6.9440 Du       1 MOL        0.0000
      2 C            21.2210   14.6370    6.1700 Du       1 MOL        0.0000
      3 C            20.5500   15.7590    6.6460 Du       1 MOL        0.0000
      4 C            18.9130   17.4610    6.2200 Du       1 MOL        0.0000
      5 C            19.1190   17.9840    7.5330 Du       1 MOL        0.0000
      6 C            20.0150   17.4160    8.3730 Du       1 MOL        0.0000
      7 C            20.0880   18.1150    9.7100 Du       1 MOL        0.0000
      8 C            20.8180   16.2680    7.9210 Du       1 MOL        0.0000
      9 C            21.8340   15.6530    8.6710 Du       1 MOL        0.0000
     10 C            22.4700   14.5440    8.1920 Du       1 MOL        0.0000
     11 N            19.6150   16.3840    5.8380 Du       1 MOL        0.0000
     12 O            19.2410   18.1000   12.2610 Du       1 MOL       -1.0000
     13 O            19.5340   15.8330   11.1140 Du       1 MOL       -1.0000
     14 O            17.5840   17.3240   10.4990 Du       1 MOL        0.0000
     15 P            19.1100   17.2730   11.0060 Du       1 MOL        0.0000
     16 B            23.0860   12.5180    6.3220 Du       1 MOL        0.0000
     17 O            18.0860   18.0390    5.5260 Du       1 MOL        0.0000
     18 B            22.4380   16.3150   10.3230 Du       1 MOL        0.0000
     19 H            21.0160   14.2760    5.2590 Du       1 MOL        0.0000
     20 H            18.5760   18.7580    7.8210 Du       1 MOL        0.0000
     21 H            21.2300   18.2390   10.0560 Du       1 MOL        0.0000
     22 H            19.5950   19.2080    9.6640 Du       1 MOL        0.0000
     23 H            17.1470   18.1680   10.8150 Du       1 MOL        0.0000
     24 H            23.1780   14.1050    8.7420 Du       1 MOL        0.0000
     25 H            19.4690   16.0640    5.0270 Du       1 MOL        0.0000
     26 H            22.8718   12.1207    5.3408 Du       1 MOL        0.0000
     27 H            23.8309   12.0455    6.9451 Du       1 MOL        0.0000
     28 H            21.9997   17.2102   10.7389 Du       1 MOL        0.0000
     29 H            23.2234   15.8002   10.8565 Du       1 MOL        0.0000
@<TRIPOS>SUBSTRUCTURE
     1 MOL         1  RESIDUE
