# Molecule written by the XED library from Cresset
@<TRIPOS>MOLECULE
A TWB 301
    25     26      1
SMALL
USER_CHARGES
@<TRIPOS>ATOM
      1  C02        21.5866   14.1171    6.2968 C.ar      1 TWB1       -0.0761
      2  C03        20.6581   14.8611    5.6245 C.ar      1 TWB1       -0.1032
      3  C04        20.0775   15.9682    6.2343 C.ar      1 TWB1        0.1026
      4  C06        18.5223   17.7938    6.0835 C.2       1 TWB1        0.2759
      5  C08        18.8643   18.1873    7.4171 C.2       1 TWB1       -0.0579
      6  C09        19.7679   17.4833    8.1365 C.2       1 TWB1        0.0092
      7  C10        20.0855   18.0300    9.5089 C.3       1 TWB1       -0.0014
      8  C15        20.4219   16.3114    7.5386 C.ar      1 TWB1       -0.0218
      9  C          21.3648   15.5340    8.2148 C.ar      1 TWB1       -0.0732
     10  C17        21.9432   14.4592    7.5967 C.ar      1 TWB1       -0.1131
     11  N          19.1439   16.7289    5.5536 N.am      1 TWB1       -0.1995
     12  O12        19.3271   17.9687   12.1093 O.2       1 TWB1       -0.3354
     13  O13        19.6351   15.7330   10.9064 O.2       1 TWB1       -0.3354
     14  O14        17.6337   17.2136   10.3946 O.2       1 TWB1       -0.5166
     15  P11        19.1779   17.1664   10.8405 P.3       1 TWB1        0.6747
     16  H          22.0082   13.3251    5.8506 H         1 TWB1        0.0906
     17  H1         20.3953   14.6128    4.6923 H         1 TWB1        0.0919
     18  O2         17.6750   18.4621    5.5045 O.2       1 TWB1       -0.4552
     19  H3         18.4191   18.9815    7.8078 H         1 TWB1        0.0942
     20  H4         21.2669   18.0100    9.7140 H         1 TWB1        0.0540
     21  H5         19.7243   19.1699    9.5917 H         1 TWB1        0.0540
     22  H2         21.6181   15.7620    9.1556 H         1 TWB1        0.0910
     23  H11        17.2001   18.0473   10.7453 H         1 TWB1        0.3295
     24  H6         22.6250   13.9124    8.0847 H         1 TWB1        0.0906
     25  H7         18.9328   16.5005    4.7318 H         1 TWB1        0.2056
@<TRIPOS>BOND
     1      1      2 ar
     2      1     10 ar
     3      2      3 ar
     4      3      8 ar
     5      3     11 1 
     6      4      5 1 
     7      4     11 am
     8      4     18 2 
     9      5      6 2 
    10      6      7 1 
    11      6      8 1 
    12      7     15 1 
    13      8      9 ar
    14      9     10 ar
    15     12     15 1 
    16     13     15 1 
    17     14     15 1 
    18      1     16 1 
    19      2     17 1 
    20      5     19 1 
    21      7     20 1 
    22      7     21 1 
    23      9     22 1 
    24     10     24 1 
    25     11     25 1 
    26     14     23 1 
@<TRIPOS>SUBSTRUCTURE
     1 TWB1         1 MOLECULE 1 A  TWB 
